!-Generator IDFEditor 1.53
!-Option SortedOrder

!-NOTE: All comments with '!-' are ignored by the IDFEditor and are generated automatically.
!-      Use '!' comments if they need to be retained when using the IDFEditor.


!-   ===========  ALL OBJECTS IN CLASS: VERSION ===========

Version,
    23.2;                    !- Version Identifier


!-   ===========  ALL OBJECTS IN CLASS: SIMULATIONCONTROL ===========

SimulationControl,
    Yes,                     !- Do Zone Sizing Calculation
    Yes,                     !- Do System Sizing Calculation
    No,                      !- Do Plant Sizing Calculation
    Yes,                     !- Run Simulation for Sizing Periods
    No,                      !- Run Simulation for Weather File Run Periods
    ,                        !- Do HVAC Sizing Simulation for Sizing Periods
    ;                        !- Maximum Number of HVAC Sizing Simulation Passes


!-   ===========  ALL OBJECTS IN CLASS: BUILDING ===========

Building,
    SubjectBuilding_\{00129\},  !- Name
    ,                        !- North Axis {deg}
    ,                        !- Terrain
    ,                        !- Loads Convergence Tolerance Value {W}
    ,                        !- Temperature Convergence Tolerance Value {deltaC}
    ,                        !- Solar Distribution
    ,                        !- Maximum Number of Warmup Days
    ;                        !- Minimum Number of Warmup Days


!-   ===========  ALL OBJECTS IN CLASS: SURFACECONVECTIONALGORITHM:INSIDE ===========

SurfaceConvectionAlgorithm:Inside,
    CeilingDiffuser;         !- Algorithm


!-   ===========  ALL OBJECTS IN CLASS: SURFACECONVECTIONALGORITHM:OUTSIDE ===========

SurfaceConvectionAlgorithm:Outside,
    AdaptiveConvectionAlgorithm;  !- Algorithm


!-   ===========  ALL OBJECTS IN CLASS: ZONEAIRCONTAMINANTBALANCE ===========

ZoneAirContaminantBalance,
    Yes,                     !- Carbon Dioxide Concentration
    Outdoor Air CO2 Concentration_\{00170\};  !- Outdoor Carbon Dioxide Schedule Name


!-   ===========  ALL OBJECTS IN CLASS: ZONEAIRMASSFLOWCONSERVATION ===========

ZoneAirMassFlowConservation,
    AdjustReturnThenMixing,  !- Adjust Zone Mixing and Return For Air Mass Flow Balance
    AdjustInfiltrationFlow,  !- Infiltration Balancing Method
    AllZones;                !- Infiltration Balancing Zones


!-   ===========  ALL OBJECTS IN CLASS: TIMESTEP ===========

Timestep,
    6;                       !- Number of Timesteps per Hour


!-   ===========  ALL OBJECTS IN CLASS: CONVERGENCELIMITS ===========

ConvergenceLimits,
    10,                      !- Minimum System Timestep {minutes}
    20,                      !- Maximum HVAC Iterations
    2,                       !- Minimum Plant Iterations
    8;                       !- Maximum Plant Iterations


!-   ===========  ALL OBJECTS IN CLASS: SITE:LOCATION ===========

Site:Location,
    George Bush Intercontinental_ TX_ USA_Site_\{00171\},  !- Name
    29.9799995422363,        !- Latitude {deg}
    -95.3600006103516,       !- Longitude {deg}
    -6,                      !- Time Zone {hr}
    28.956;                  !- Elevation {m}


!-   ===========  ALL OBJECTS IN CLASS: SIZINGPERIOD:DESIGNDAY ===========

SizingPeriod:DesignDay,
    00\:HDD_George Bush Intercontinental_ TX_ USA_\{00172\},  !- Name
    1,                       !- Month
    15,                      !- Day of Month
    WinterDesignDay,         !- Day Type
    -0.499999788072374,      !- Maximum Dry-Bulb Temperature {C}
    0,                       !- Daily Dry-Bulb Temperature Range {deltaC}
    DefaultMultipliers,      !- Dry-Bulb Temperature Range Modifier Type
    ,                        !- Dry-Bulb Temperature Range Modifier Day Schedule Name
    Wetbulb,                 !- Humidity Condition Type
    -3.19067107306586,       !- Wetbulb or DewPoint at Maximum Dry-Bulb {C}
    ,                        !- Humidity Condition Day Schedule Name
    ,                        !- Humidity Ratio at Maximum Dry-Bulb {kgWater/kgDryAir}
    ,                        !- Enthalpy at Maximum Dry-Bulb {J/kg}
    ,                        !- Daily Wet-Bulb Temperature Range {deltaC}
    100977.973674346,        !- Barometric Pressure {Pa}
    18.04,                   !- Wind Speed {m/s}
    0,                       !- Wind Direction {deg}
    No,                      !- Rain Indicator
    No,                      !- Snow Indicator
    No,                      !- Daylight Saving Time Indicator
    ASHRAEClearSky,          !- Solar Model Indicator
    ,                        !- Beam Solar Day Schedule Name
    ,                        !- Diffuse Solar Day Schedule Name
    ,                        !- ASHRAE Clear Sky Optical Depth for Beam Irradiance (taub) {dimensionless}
    ,                        !- ASHRAE Clear Sky Optical Depth for Diffuse Irradiance (taud) {dimensionless}
    0;                       !- Sky Clearness

SizingPeriod:DesignDay,
    08\:CDD_George Bush Intercontinental_ TX_ USA_August_\{00212\},  !- Name
    8,                       !- Month
    21,                      !- Day of Month
    SummerDesignDay,         !- Day Type
    36.3888888888889,        !- Maximum Dry-Bulb Temperature {C}
    ,                        !- Daily Dry-Bulb Temperature Range {deltaC}
    DifferenceSchedule,      !- Dry-Bulb Temperature Range Modifier Type
    DrybulbTemperatureScheduleDayForDesignWeather_August_\{00208\},  !- Dry-Bulb Temperature Range Modifier Day Schedule Name
    WetBulbProfileDifferenceSchedule,  !- Humidity Condition Type
    24.6670659383138,        !- Wetbulb or DewPoint at Maximum Dry-Bulb {C}
    WetbulbTemperatureScheduleDayForDesignWeather_August_\{00209\},  !- Humidity Condition Day Schedule Name
    ,                        !- Humidity Ratio at Maximum Dry-Bulb {kgWater/kgDryAir}
    ,                        !- Enthalpy at Maximum Dry-Bulb {J/kg}
    ,                        !- Daily Wet-Bulb Temperature Range {deltaC}
    100977.973674346,        !- Barometric Pressure {Pa}
    9.02,                    !- Wind Speed {m/s}
    0,                       !- Wind Direction {deg}
    No,                      !- Rain Indicator
    No,                      !- Snow Indicator
    Yes,                     !- Daylight Saving Time Indicator
    Schedule,                !- Solar Model Indicator
    BeamRadiationScheduleDayForDesignWeather_August_\{00210\},  !- Beam Solar Day Schedule Name
    DiffuseRadiationScheduleDayForDesignWeather_August_\{00211\};  !- Diffuse Solar Day Schedule Name


!-   ===========  ALL OBJECTS IN CLASS: RUNPERIOD ===========

RunPeriod,
    Run Period 1,            !- Name
    1,                       !- Begin Month
    1,                       !- Begin Day of Month
    2009,                    !- Begin Year
    12,                      !- End Month
    31,                      !- End Day of Month
    2009,                    !- End Year
    Thursday,                !- Day of Week for Start Day
    No,                      !- Use Weather File Holidays and Special Days
    No,                      !- Use Weather File Daylight Saving Period
    No,                      !- Apply Weekend Holiday Rule
    Yes,                     !- Use Weather File Rain Indicators
    Yes;                     !- Use Weather File Snow Indicators


!-   ===========  ALL OBJECTS IN CLASS: SITE:GROUNDREFLECTANCE ===========

Site:GroundReflectance,
    0.200000002980232,       !- January Ground Reflectance {dimensionless}
    0.200000002980232,       !- February Ground Reflectance {dimensionless}
    0.200000002980232,       !- March Ground Reflectance {dimensionless}
    0.200000002980232,       !- April Ground Reflectance {dimensionless}
    0.200000002980232,       !- May Ground Reflectance {dimensionless}
    0.200000002980232,       !- June Ground Reflectance {dimensionless}
    0.200000002980232,       !- July Ground Reflectance {dimensionless}
    0.200000002980232,       !- August Ground Reflectance {dimensionless}
    0.200000002980232,       !- September Ground Reflectance {dimensionless}
    0.200000002980232,       !- October Ground Reflectance {dimensionless}
    0.200000002980232,       !- November Ground Reflectance {dimensionless}
    0.200000002980232;       !- December Ground Reflectance {dimensionless}


!-   ===========  ALL OBJECTS IN CLASS: SCHEDULETYPELIMITS ===========

ScheduleTypeLimits,
    Fraction,                !- Name
    0,                       !- Lower Limit Value
    1,                       !- Upper Limit Value
    Continuous,              !- Numeric Type
    dimensionless;           !- Unit Type

ScheduleTypeLimits,
    Zone 2_\{00254\} Thermostat Schedule Type Limits,  !- Name
    0,                       !- Lower Limit Value
    4,                       !- Upper Limit Value
    DISCRETE;                !- Numeric Type

ScheduleTypeLimits,
    Temperature,             !- Name
    -100,                    !- Lower Limit Value
    200,                     !- Upper Limit Value
    Continuous,              !- Numeric Type
    temperature;             !- Unit Type

ScheduleTypeLimits,
    ActivityLevel,           !- Name
    0,                       !- Lower Limit Value
    ,                        !- Upper Limit Value
    Continuous,              !- Numeric Type
    activitylevel;           !- Unit Type

ScheduleTypeLimits,
    AnyNumber;               !- Name

ScheduleTypeLimits,
    Binary,                  !- Name
    0,                       !- Lower Limit Value
    1,                       !- Upper Limit Value
    Discrete,                !- Numeric Type
    dimensionless;           !- Unit Type

ScheduleTypeLimits,
    Control Type,            !- Name
    0,                       !- Lower Limit Value
    4,                       !- Upper Limit Value
    Discrete;                !- Numeric Type

ScheduleTypeLimits,
    Dimensionless,           !- Name
    0,                       !- Lower Limit Value
    ,                        !- Upper Limit Value
    Continuous;              !- Numeric Type

ScheduleTypeLimits,
    Fractional,              !- Name
    0,                       !- Lower Limit Value
    1,                       !- Upper Limit Value
    Continuous;              !- Numeric Type

ScheduleTypeLimits,
    OnOff,                   !- Name
    0,                       !- Lower Limit Value
    1,                       !- Upper Limit Value
    Discrete,                !- Numeric Type
    availability;            !- Unit Type

ScheduleTypeLimits,
    OnOff 1,                 !- Name
    0,                       !- Lower Limit Value
    1,                       !- Upper Limit Value
    Discrete,                !- Numeric Type
    availability;            !- Unit Type

ScheduleTypeLimits,
    Percent,                 !- Name
    0,                       !- Lower Limit Value
    100,                     !- Upper Limit Value
    Continuous,              !- Numeric Type
    percent;                 !- Unit Type


!-   ===========  ALL OBJECTS IN CLASS: SCHEDULE:DAY:INTERVAL ===========

Schedule:Day:Interval,
    Schedule373486904_Profile_Profile_4_\{00057\},  !- Name
    Fraction,                !- Schedule Type Limits Name
    No,                      !- Interpolate to Timestep
    24:00,                   !- Time 1 {hh:mm}
    0.05;                    !- Value Until Time 1

Schedule:Day:Interval,
    Schedule373486904_Profile_Profile_2_\{00055\},  !- Name
    Fraction,                !- Schedule Type Limits Name
    No,                      !- Interpolate to Timestep
    05:00,                   !- Time 1 {hh:mm}
    0.05,                    !- Value Until Time 1
    07:00,                   !- Time 2 {hh:mm}
    0.1,                     !- Value Until Time 2
    08:00,                   !- Time 3 {hh:mm}
    0.3,                     !- Value Until Time 3
    12:00,                   !- Time 4 {hh:mm}
    0.9,                     !- Value Until Time 4
    13:00,                   !- Time 5 {hh:mm}
    0.8,                     !- Value Until Time 5
    17:00,                   !- Time 6 {hh:mm}
    0.9,                     !- Value Until Time 6
    18:00,                   !- Time 7 {hh:mm}
    0.5,                     !- Value Until Time 7
    20:00,                   !- Time 8 {hh:mm}
    0.3,                     !- Value Until Time 8
    22:00,                   !- Time 9 {hh:mm}
    0.2,                     !- Value Until Time 9
    23:00,                   !- Time 10 {hh:mm}
    0.1,                     !- Value Until Time 10
    24:00,                   !- Time 11 {hh:mm}
    0.05;                    !- Value Until Time 11

Schedule:Day:Interval,
    Schedule373486904_Profile_Profile_3_\{00056\},  !- Name
    Fraction,                !- Schedule Type Limits Name
    No,                      !- Interpolate to Timestep
    06:00,                   !- Time 1 {hh:mm}
    0.05,                    !- Value Until Time 1
    08:00,                   !- Time 2 {hh:mm}
    0.1,                     !- Value Until Time 2
    12:00,                   !- Time 3 {hh:mm}
    0.3,                     !- Value Until Time 3
    17:00,                   !- Time 4 {hh:mm}
    0.15,                    !- Value Until Time 4
    24:00,                   !- Time 5 {hh:mm}
    0.05;                    !- Value Until Time 5

Schedule:Day:Interval,
    Schedule373486904_Profile_Profile_1_\{00054\},  !- Name
    Fraction,                !- Schedule Type Limits Name
    No,                      !- Interpolate to Timestep
    05:00,                   !- Time 1 {hh:mm}
    0.05,                    !- Value Until Time 1
    23:00,                   !- Time 2 {hh:mm}
    1,                       !- Value Until Time 2
    24:00,                   !- Time 3 {hh:mm}
    0.05;                    !- Value Until Time 3

Schedule:Day:Interval,
    Daily_AlwaysOff,         !- Name
    Fraction,                !- Schedule Type Limits Name
    No,                      !- Interpolate to Timestep
    24:00,                   !- Time 1 {hh:mm}
    0;                       !- Value Until Time 1

Schedule:Day:Interval,
    Default Fan/Thermostat Schedule_Profile_Profile_1_HtgSp_UnoccupiedAvailable_\{00033\},  !- Name
    Temperature,             !- Schedule Type Limits Name
    No,                      !- Interpolate to Timestep
    24:00,                   !- Time 1 {hh:mm}
    21.1111111111111;        !- Value Until Time 1

Schedule:Day:Interval,
    System1_SingleZoneCAV_Thermostat_HtgSp_at_WDD,  !- Name
    Temperature,             !- Schedule Type Limits Name
    No,                      !- Interpolate to Timestep
    24:00,                   !- Time 1 {hh:mm}
    21.1111111111111;        !- Value Until Time 1

Schedule:Day:Interval,
    Default Fan/Thermostat Schedule_Profile_Profile_1_ClgSp_UnoccupiedAvailable_\{00029\},  !- Name
    Temperature,             !- Schedule Type Limits Name
    No,                      !- Interpolate to Timestep
    24:00,                   !- Time 1 {hh:mm}
    22.2222222222222;        !- Value Until Time 1

Schedule:Day:Interval,
    System1_SingleZoneCAV_Thermostat_ClgSp_at_WDD,  !- Name
    Temperature,             !- Schedule Type Limits Name
    No,                      !- Interpolate to Timestep
    24:00,                   !- Time 1 {hh:mm}
    22.2222222222222;        !- Value Until Time 1

Schedule:Day:Interval,
    BeamRadiationScheduleDayForDesignWeather_August_\{00210\},  !- Name
    AnyNumber,               !- Schedule Type Limits Name
    Linear,                  !- Interpolate to Timestep
    00:10,                   !- Time 1 {hh:mm}
    0,                       !- Value Until Time 1
    00:30,                   !- Time 2 {hh:mm}
    0,                       !- Value Until Time 2
    01:30,                   !- Time 3 {hh:mm}
    0,                       !- Value Until Time 3
    02:30,                   !- Time 4 {hh:mm}
    0,                       !- Value Until Time 4
    03:30,                   !- Time 5 {hh:mm}
    0,                       !- Value Until Time 5
    04:30,                   !- Time 6 {hh:mm}
    0,                       !- Value Until Time 6
    05:30,                   !- Time 7 {hh:mm}
    0,                       !- Value Until Time 7
    06:30,                   !- Time 8 {hh:mm}
    183.188939580173,        !- Value Until Time 8
    07:30,                   !- Time 9 {hh:mm}
    485.99315296785,         !- Value Until Time 9
    08:30,                   !- Time 10 {hh:mm}
    640.546788057129,        !- Value Until Time 10
    09:30,                   !- Time 11 {hh:mm}
    727.233731878296,        !- Value Until Time 11
    10:30,                   !- Time 12 {hh:mm}
    777.122537269684,        !- Value Until Time 12
    11:30,                   !- Time 13 {hh:mm}
    802.980017307282,        !- Value Until Time 13
    12:30,                   !- Time 14 {hh:mm}
    810.173732452667,        !- Value Until Time 14
    13:30,                   !- Time 15 {hh:mm}
    800.061625923325,        !- Value Until Time 15
    14:30,                   !- Time 16 {hh:mm}
    770.718721390503,        !- Value Until Time 16
    15:30,                   !- Time 17 {hh:mm}
    715.890277809112,        !- Value Until Time 17
    16:30,                   !- Time 18 {hh:mm}
    620.872712640945,        !- Value Until Time 18
    17:30,                   !- Time 19 {hh:mm}
    449.211958142075,        !- Value Until Time 19
    18:30,                   !- Time 20 {hh:mm}
    113.819815141968,        !- Value Until Time 20
    19:30,                   !- Time 21 {hh:mm}
    0,                       !- Value Until Time 21
    20:30,                   !- Time 22 {hh:mm}
    0,                       !- Value Until Time 22
    21:30,                   !- Time 23 {hh:mm}
    0,                       !- Value Until Time 23
    22:30,                   !- Time 24 {hh:mm}
    0,                       !- Value Until Time 24
    23:30,                   !- Time 25 {hh:mm}
    0,                       !- Value Until Time 25
    24:00,                   !- Time 26 {hh:mm}
    0;                       !- Value Until Time 26

Schedule:Day:Interval,
    Daily_AlwaysOn,          !- Name
    Fraction,                !- Schedule Type Limits Name
    No,                      !- Interpolate to Timestep
    24:00,                   !- Time 1 {hh:mm}
    1;                       !- Value Until Time 1

Schedule:Day:Interval,
    Daily_Available,         !- Name
    Binary,                  !- Schedule Type Limits Name
    No,                      !- Interpolate to Timestep
    24:00,                   !- Time 1 {hh:mm}
    1;                       !- Value Until Time 1

Schedule:Day:Interval,
    DiffuseRadiationScheduleDayForDesignWeather_August_\{00211\},  !- Name
    AnyNumber,               !- Schedule Type Limits Name
    Linear,                  !- Interpolate to Timestep
    00:10,                   !- Time 1 {hh:mm}
    0,                       !- Value Until Time 1
    00:30,                   !- Time 2 {hh:mm}
    0,                       !- Value Until Time 2
    01:30,                   !- Time 3 {hh:mm}
    0,                       !- Value Until Time 3
    02:30,                   !- Time 4 {hh:mm}
    0,                       !- Value Until Time 4
    03:30,                   !- Time 5 {hh:mm}
    0,                       !- Value Until Time 5
    04:30,                   !- Time 6 {hh:mm}
    0,                       !- Value Until Time 6
    05:30,                   !- Time 7 {hh:mm}
    0,                       !- Value Until Time 7
    06:30,                   !- Time 8 {hh:mm}
    39.5829665602989,        !- Value Until Time 8
    07:30,                   !- Time 9 {hh:mm}
    79.710294534462,         !- Value Until Time 9
    08:30,                   !- Time 10 {hh:mm}
    105.484909758728,        !- Value Until Time 10
    09:30,                   !- Time 11 {hh:mm}
    122.935125115589,        !- Value Until Time 11
    10:30,                   !- Time 12 {hh:mm}
    134.339698904045,        !- Value Until Time 12
    11:30,                   !- Time 13 {hh:mm}
    140.729459293541,        !- Value Until Time 13
    12:30,                   !- Time 14 {hh:mm}
    142.57190775563,         !- Value Until Time 14
    13:30,                   !- Time 15 {hh:mm}
    139.990294568871,        !- Value Until Time 15
    14:30,                   !- Time 16 {hh:mm}
    132.810598811741,        !- Value Until Time 16
    15:30,                   !- Time 17 {hh:mm}
    120.49369377758,         !- Value Until Time 17
    16:30,                   !- Time 18 {hh:mm}
    101.87043468869,         !- Value Until Time 18
    17:30,                   !- Time 19 {hh:mm}
    74.3048396062584,        !- Value Until Time 19
    18:30,                   !- Time 20 {hh:mm}
    30.6074022098284,        !- Value Until Time 20
    19:30,                   !- Time 21 {hh:mm}
    0,                       !- Value Until Time 21
    20:30,                   !- Time 22 {hh:mm}
    0,                       !- Value Until Time 22
    21:30,                   !- Time 23 {hh:mm}
    0,                       !- Value Until Time 23
    22:30,                   !- Time 24 {hh:mm}
    0,                       !- Value Until Time 24
    23:30,                   !- Time 25 {hh:mm}
    0,                       !- Value Until Time 25
    24:00,                   !- Time 26 {hh:mm}
    0;                       !- Value Until Time 26

Schedule:Day:Interval,
    DrybulbTemperatureScheduleDayForDesignWeather_August_\{00208\},  !- Name
    Temperature,             !- Schedule Type Limits Name
    Linear,                  !- Interpolate to Timestep
    00:10,                   !- Time 1 {hh:mm}
    8.32074059380425,        !- Value Until Time 1
    00:30,                   !- Time 2 {hh:mm}
    8.56444464789497,        !- Value Until Time 2
    01:30,                   !- Time 3 {hh:mm}
    9.19111039903429,        !- Value Until Time 3
    02:30,                   !- Time 4 {hh:mm}
    9.6088875664605,         !- Value Until Time 4
    03:30,                   !- Time 5 {hh:mm}
    9.92222256130642,        !- Value Until Time 5
    04:30,                   !- Time 6 {hh:mm}
    10.2355533175998,        !- Value Until Time 6
    05:30,                   !- Time 7 {hh:mm}
    10.4444461398655,        !- Value Until Time 7
    06:30,                   !- Time 8 {hh:mm}
    10.2355533175998,        !- Value Until Time 8
    07:30,                   !- Time 9 {hh:mm}
    9.50444539388021,        !- Value Until Time 9
    08:30,                   !- Time 10 {hh:mm}
    7.72889031304253,        !- Value Until Time 10
    09:30,                   !- Time 11 {hh:mm}
    5.74444240993924,        !- Value Until Time 11
    10:30,                   !- Time 12 {hh:mm}
    3.96888732910156,        !- Value Until Time 12
    11:30,                   !- Time 13 {hh:mm}
    2.402220831977,          !- Value Until Time 13
    12:30,                   !- Time 14 {hh:mm}
    1.35777791341146,        !- Value Until Time 14
    13:30,                   !- Time 15 {hh:mm}
    0.522223578559028,       !- Value Until Time 15
    14:30,                   !- Time 16 {hh:mm}
    0,                       !- Value Until Time 16
    15:30,                   !- Time 17 {hh:mm}
    0,                       !- Value Until Time 17
    16:30,                   !- Time 18 {hh:mm}
    0.626665751139323,       !- Value Until Time 18
    17:30,                   !- Time 19 {hh:mm}
    1.46222008599175,        !- Value Until Time 19
    18:30,                   !- Time 20 {hh:mm}
    2.50666724310981,        !- Value Until Time 20
    19:30,                   !- Time 21 {hh:mm}
    4.07333374023438,        !- Value Until Time 21
    20:30,                   !- Time 22 {hh:mm}
    5.22222306993273,        !- Value Until Time 22
    21:30,                   !- Time 23 {hh:mm}
    6.16222381591797,        !- Value Until Time 23
    22:30,                   !- Time 24 {hh:mm}
    7.10222032335069,        !- Value Until Time 24
    23:30,                   !- Time 25 {hh:mm}
    7.83333248562283,        !- Value Until Time 25
    24:00,                   !- Time 26 {hh:mm}
    8.1988885667589;         !- Value Until Time 26

Schedule:Day:Interval,
    Min_OA_WinterDesignDay,  !- Name
    Fraction,                !- Schedule Type Limits Name
    No,                      !- Interpolate to Timestep
    24:00,                   !- Time 1 {hh:mm}
    1;                       !- Value Until Time 1

Schedule:Day:Interval,
    Schedule1073755840_Profile_Profile_1_\{00115\},  !- Name
    Fraction,                !- Schedule Type Limits Name
    No,                      !- Interpolate to Timestep
    07:00,                   !- Time 1 {hh:mm}
    0.05,                    !- Value Until Time 1
    18:00,                   !- Time 2 {hh:mm}
    1,                       !- Value Until Time 2
    24:00,                   !- Time 3 {hh:mm}
    0.05;                    !- Value Until Time 3

Schedule:Day:Interval,
    Schedule1073755840_Profile_Profile_2_\{00116\},  !- Name
    Fraction,                !- Schedule Type Limits Name
    No,                      !- Interpolate to Timestep
    07:00,                   !- Time 1 {hh:mm}
    0.05,                    !- Value Until Time 1
    08:00,                   !- Time 2 {hh:mm}
    0.4,                     !- Value Until Time 2
    09:00,                   !- Time 3 {hh:mm}
    0.7,                     !- Value Until Time 3
    12:00,                   !- Time 4 {hh:mm}
    0.9,                     !- Value Until Time 4
    13:00,                   !- Time 5 {hh:mm}
    0.8,                     !- Value Until Time 5
    17:00,                   !- Time 6 {hh:mm}
    0.9,                     !- Value Until Time 6
    18:00,                   !- Time 7 {hh:mm}
    0.3,                     !- Value Until Time 7
    24:00,                   !- Time 8 {hh:mm}
    0.05;                    !- Value Until Time 8

Schedule:Day:Interval,
    Schedule1073755840_Profile_Profile_3_\{00117\},  !- Name
    Fraction,                !- Schedule Type Limits Name
    No,                      !- Interpolate to Timestep
    08:00,                   !- Time 1 {hh:mm}
    0.05,                    !- Value Until Time 1
    09:00,                   !- Time 2 {hh:mm}
    0.08,                    !- Value Until Time 2
    12:00,                   !- Time 3 {hh:mm}
    0.24,                    !- Value Until Time 3
    24:00,                   !- Time 4 {hh:mm}
    0.05;                    !- Value Until Time 4

Schedule:Day:Interval,
    Schedule1073755840_Profile_Profile_4_\{00118\},  !- Name
    Fraction,                !- Schedule Type Limits Name
    No,                      !- Interpolate to Timestep
    24:00,                   !- Time 1 {hh:mm}
    0.05;                    !- Value Until Time 1

Schedule:Day:Interval,
    Schedule1275016811_Profile_Profile_1_\{00107\},  !- Name
    Fraction,                !- Schedule Type Limits Name
    No,                      !- Interpolate to Timestep
    07:00,                   !- Time 1 {hh:mm}
    0,                       !- Value Until Time 1
    22:00,                   !- Time 2 {hh:mm}
    1,                       !- Value Until Time 2
    24:00,                   !- Time 3 {hh:mm}
    0;                       !- Value Until Time 3

Schedule:Day:Interval,
    Schedule1275016811_Profile_Profile_2_\{00108\},  !- Name
    Fraction,                !- Schedule Type Limits Name
    No,                      !- Interpolate to Timestep
    07:00,                   !- Time 1 {hh:mm}
    0,                       !- Value Until Time 1
    08:00,                   !- Time 2 {hh:mm}
    0.05,                    !- Value Until Time 2
    09:00,                   !- Time 3 {hh:mm}
    0.75,                    !- Value Until Time 3
    11:00,                   !- Time 4 {hh:mm}
    0.9,                     !- Value Until Time 4
    15:00,                   !- Time 5 {hh:mm}
    0.8,                     !- Value Until Time 5
    16:00,                   !- Time 6 {hh:mm}
    0.45,                    !- Value Until Time 6
    17:00,                   !- Time 7 {hh:mm}
    0.15,                    !- Value Until Time 7
    18:00,                   !- Time 8 {hh:mm}
    0.05,                    !- Value Until Time 8
    19:00,                   !- Time 9 {hh:mm}
    0.15,                    !- Value Until Time 9
    21:00,                   !- Time 10 {hh:mm}
    0.2,                     !- Value Until Time 10
    22:00,                   !- Time 11 {hh:mm}
    0.1,                     !- Value Until Time 11
    24:00,                   !- Time 12 {hh:mm}
    0;                       !- Value Until Time 12

Schedule:Day:Interval,
    Schedule1275016811_Profile_Profile_3_\{00109\},  !- Name
    Fraction,                !- Schedule Type Limits Name
    No,                      !- Interpolate to Timestep
    08:00,                   !- Time 1 {hh:mm}
    0,                       !- Value Until Time 1
    13:00,                   !- Time 2 {hh:mm}
    0.1,                     !- Value Until Time 2
    24:00,                   !- Time 3 {hh:mm}
    0;                       !- Value Until Time 3

Schedule:Day:Interval,