!-Generator IDFEditor 1.50
!-Option SortedOrder

!-NOTE: All comments with '!-' are ignored by the IDFEditor and are generated automatically.
!-      Use '!' comments if they need to be retained when using the IDFEditor.


!-   ===========  ALL OBJECTS IN CLASS: VERSION ===========

Version,
    9.2;                     !- Version Identifier


!-   ===========  ALL OBJECTS IN CLASS: SIMULATIONCONTROL ===========

SimulationControl,
    Yes,                     !- Do Zone Sizing Calculation
    No,                      !- Do System Sizing Calculation
    No,                      !- Do Plant Sizing Calculation
    Yes,                     !- Run Simulation for Sizing Periods
    No;                      !- Run Simulation for Weather File Run Periods


!-   ===========  ALL OBJECTS IN CLASS: BUILDING ===========

Building,
    Building 1,              !- Name
    ,                        !- North Axis {deg}
    ,                        !- Terrain
    0.04,                    !- Loads Convergence Tolerance Value
    0.4,                     !- Temperature Convergence Tolerance Value {deltaC}
    FullExterior,            !- Solar Distribution
    25,                      !- Maximum Number of Warmup Days
    6;                       !- Minimum Number of Warmup Days


!-   ===========  ALL OBJECTS IN CLASS: SURFACECONVECTIONALGORITHM:INSIDE ===========

SurfaceConvectionAlgorithm:Inside,
    CeilingDiffuser;         !- Algorithm


!-   ===========  ALL OBJECTS IN CLASS: SURFACECONVECTIONALGORITHM:OUTSIDE ===========

SurfaceConvectionAlgorithm:Outside,
    AdaptiveConvectionAlgorithm;  !- Algorithm


!-   ===========  ALL OBJECTS IN CLASS: TIMESTEP ===========

Timestep,
    6;                       !- Number of Timesteps per Hour


!-   ===========  ALL OBJECTS IN CLASS: CONVERGENCELIMITS ===========

ConvergenceLimits,
    10,                      !- Minimum System Timestep {minutes}
    20,                      !- Maximum HVAC Iterations
    2,                       !- Minimum Plant Iterations
    8;                       !- Maximum Plant Iterations


!-   ===========  ALL OBJECTS IN CLASS: SITE:LOCATION ===========

Site:Location,
    Chicago O'hare Intl_Site_{00200},  !- Name
    41.9949989318848,        !- Latitude {deg}
    -87.9339981079102,       !- Longitude {deg}
    -6,                      !- Time Zone {hr}
    201.7776;                !- Elevation {m}


!-   ===========  ALL OBJECTS IN CLASS: SIZINGPERIOD:DESIGNDAY ===========

SizingPeriod:DesignDay,
    00:HDD_Chicago O'hare Intl_{00201},  !- Name
    1,                       !- Month
    15,                      !- Day of Month
    WinterDesignDay,         !- Day Type
    -18.3333333333333,       !- Maximum Dry-Bulb Temperature {C}
    0,                       !- Daily Dry-Bulb Temperature Range {deltaC}
    DefaultMultipliers,      !- Dry-Bulb Temperature Range Modifier Type
    ,                        !- Dry-Bulb Temperature Range Modifier Day Schedule Name
    Wetbulb,                 !- Humidity Condition Type
    -19.1574374834696,       !- Wetbulb or DewPoint at Maximum Dry-Bulb {C}
    ,                        !- Humidity Condition Day Schedule Name
    ,                        !- Humidity Ratio at Maximum Dry-Bulb {kgWater/kgDryAir}
    ,                        !- Enthalpy at Maximum Dry-Bulb {J/kg}
    ,                        !- Daily Wet-Bulb Temperature Range {deltaC}
    98924.7014471769,        !- Barometric Pressure {Pa}
    5.5,                     !- Wind Speed {m/s}
    0,                       !- Wind Direction {deg}
    No,                      !- Rain Indicator
    No,                      !- Snow Indicator
    No,                      !- Daylight Saving Time Indicator
    ASHRAEClearSky,          !- Solar Model Indicator
    ,                        !- Beam Solar Day Schedule Name
    ,                        !- Diffuse Solar Day Schedule Name
    ,                        !- ASHRAE Clear Sky Optical Depth for Beam Irradiance (taub) {dimensionless}
    ,                        !- ASHRAE Clear Sky Optical Depth for Diffuse Irradiance (taud) {dimensionless}
    0;                       !- Sky Clearness


!-   ===========  ALL OBJECTS IN CLASS: RUNPERIOD ===========

RunPeriod,
    Run Period 1,            !- Name
    1,                       !- Begin Month
    1,                       !- Begin Day of Month
    2009,                    !- Begin Year
    12,                      !- End Month
    31,                      !- End Day of Month
    2009,                    !- End Year
    Thursday,                !- Day of Week for Start Day
    No,                      !- Use Weather File Holidays and Special Days
    No,                      !- Use Weather File Daylight Saving Period
    No,                      !- Apply Weekend Holiday Rule
    Yes,                     !- Use Weather File Rain Indicators
    Yes;                     !- Use Weather File Snow Indicators


!-   ===========  ALL OBJECTS IN CLASS: SITE:GROUNDREFLECTANCE ===========

Site:GroundReflectance,
    0.200000002980232,       !- January Ground Reflectance {dimensionless}
    0.200000002980232,       !- February Ground Reflectance {dimensionless}
    0.200000002980232,       !- March Ground Reflectance {dimensionless}
    0.200000002980232,       !- April Ground Reflectance {dimensionless}
    0.200000002980232,       !- May Ground Reflectance {dimensionless}
    0.200000002980232,       !- June Ground Reflectance {dimensionless}
    0.200000002980232,       !- July Ground Reflectance {dimensionless}
    0.200000002980232,       !- August Ground Reflectance {dimensionless}
    0.200000002980232,       !- September Ground Reflectance {dimensionless}
    0.200000002980232,       !- October Ground Reflectance {dimensionless}
    0.200000002980232,       !- November Ground Reflectance {dimensionless}
    0.200000002980232;       !- December Ground Reflectance {dimensionless}


!-   ===========  ALL OBJECTS IN CLASS: SCHEDULETYPELIMITS ===========

ScheduleTypeLimits,
    Zone_Zone for space CoreSpace_CoreSpace_{00270} Thermostat Schedule Type Limits,  !- Name
    0,                       !- Lower Limit Value
    4,                       !- Upper Limit Value
    DISCRETE;                !- Numeric Type

ScheduleTypeLimits,
    Temperature,             !- Name
    -100,                    !- Lower Limit Value
    200,                     !- Upper Limit Value
    Continuous,              !- Numeric Type
    temperature;             !- Unit Type

ScheduleTypeLimits,
    Fraction,                !- Name
    0,                       !- Lower Limit Value
    1,                       !- Upper Limit Value
    Continuous,              !- Numeric Type
    dimensionless;           !- Unit Type

ScheduleTypeLimits,
    Zone_Zone for space EastSpace_EastSpace_{00268} Thermostat Schedule Type Limits,  !- Name
    0,                       !- Lower Limit Value
    4,                       !- Upper Limit Value
    DISCRETE;                !- Numeric Type

ScheduleTypeLimits,
    Zone_Zone for space NorthSpace_NorthSpace_{00266} Thermostat Schedule Type Limits,  !- Name
    0,                       !- Lower Limit Value
    4,                       !- Upper Limit Value
    DISCRETE;                !- Numeric Type

ScheduleTypeLimits,
    Zone_Zone for space SouthSpace_SouthSpace_{00264} Thermostat Schedule Type Limits,  !- Name
    0,                       !- Lower Limit Value
    4,                       !- Upper Limit Value
    DISCRETE;                !- Numeric Type

ScheduleTypeLimits,
    Zone_Zone for space WestSpace_WestSpace_{00262} Thermostat Schedule Type Limits,  !- Name
    0,                       !- Lower Limit Value
    4,                       !- Upper Limit Value
    DISCRETE;                !- Numeric Type

ScheduleTypeLimits,
    ActivityLevel,           !- Name
    0,                       !- Lower Limit Value
    ,                        !- Upper Limit Value
    Continuous,              !- Numeric Type
    activitylevel;           !- Unit Type

ScheduleTypeLimits,
    AnyNumber;               !- Name


!-   ===========  ALL OBJECTS IN CLASS: SCHEDULE:DAY:INTERVAL ===========

Schedule:Day:Interval,
    90.1 Office HVAC_Profile_Profile_3_HtgSp_UnoccupiedAvailable_{00056},  !- Name
    Temperature,             !- Schedule Type Limits Name
    No,                      !- Interpolate to Timestep
    24:00,                   !- Time 1 {hh:mm}
    18.3333333333333;        !- Value Until Time 1

Schedule:Day:Interval,
    90.1 Office HVAC_Profile_Profile_1_HtgSp_UnoccupiedAvailable_{00052},  !- Name
    Temperature,             !- Schedule Type Limits Name
    No,                      !- Interpolate to Timestep
    05:00,                   !- Time 1 {hh:mm}
    18.3333333333333,        !- Value Until Time 1
    22:00,                   !- Time 2 {hh:mm}
    21.1111111111111,        !- Value Until Time 2
    24:00,                   !- Time 3 {hh:mm}
    18.3333333333333;        !- Value Until Time 3

Schedule:Day:Interval,
    90.1 Office HVAC_Profile_Profile_2_HtgSp_UnoccupiedAvailable_{00054},  !- Name
    Temperature,             !- Schedule Type Limits Name
    No,                      !- Interpolate to Timestep
    05:00,                   !- Time 1 {hh:mm}
    18.3333333333333,        !- Value Until Time 1
    18:00,                   !- Time 2 {hh:mm}
    21.1111111111111,        !- Value Until Time 2
    24:00,                   !- Time 3 {hh:mm}
    18.3333333333333;        !- Value Until Time 3

Schedule:Day:Interval,
    VRF10_Thermostat_HtgSp_at_WDD,  !- Name
    Temperature,             !- Schedule Type Limits Name
    No,                      !- Interpolate to Timestep
    24:00,                   !- Time 1 {hh:mm}
    21.1111111111111;        !- Value Until Time 1

Schedule:Day:Interval,
    90.1 Office HVAC_Profile_Profile_3_ClgSp_UnoccupiedAvailable_{00048},  !- Name
    Temperature,             !- Schedule Type Limits Name
    No,                      !- Interpolate to Timestep
    24:00,                   !- Time 1 {hh:mm}
    26.6666666666667;        !- Value Until Time 1

Schedule:Day:Interval,
    90.1 Office HVAC_Profile_Profile_1_ClgSp_UnoccupiedAvailable_{00044},  !- Name
    Temperature,             !- Schedule Type Limits Name
    No,                      !- Interpolate to Timestep
    05:00,                   !- Time 1 {hh:mm}
    26.6666666666667,        !- Value Until Time 1
    22:00,                   !- Time 2 {hh:mm}
    23.8888888888889,        !- Value Until Time 2
    24:00,                   !- Time 3 {hh:mm}
    26.6666666666667;        !- Value Until Time 3

Schedule:Day:Interval,
    90.1 Office HVAC_Profile_Profile_2_ClgSp_UnoccupiedAvailable_{00046},  !- Name
    Temperature,             !- Schedule Type Limits Name
    No,                      !- Interpolate to Timestep
    05:00,                   !- Time 1 {hh:mm}
    26.6666666666667,        !- Value Until Time 1
    18:00,                   !- Time 2 {hh:mm}
    23.8888888888889,        !- Value Until Time 2
    24:00,                   !- Time 3 {hh:mm}
    26.6666666666667;        !- Value Until Time 3

Schedule:Day:Interval,
    VRF10_Thermostat_ClgSp_at_WDD,  !- Name
    Temperature,             !- Schedule Type Limits Name
    No,                      !- Interpolate to Timestep
    24:00,                   !- Time 1 {hh:mm}
    23.8888888888889;        !- Value Until Time 1

Schedule:Day:Interval,
    Schedule14_Profile_Profile_4_{00063},  !- Name
    Fraction,                !- Schedule Type Limits Name
    No,                      !- Interpolate to Timestep
    24:00,                   !- Time 1 {hh:mm}
    0.05;                    !- Value Until Time 1

Schedule:Day:Interval,
    Schedule14_Profile_Profile_2_{00061},  !- Name
    Fraction,                !- Schedule Type Limits Name
    No,                      !- Interpolate to Timestep
    05:00,                   !- Time 1 {hh:mm}
    0.05,                    !- Value Until Time 1
    07:00,                   !- Time 2 {hh:mm}
    0.1,                     !- Value Until Time 2
    08:00,                   !- Time 3 {hh:mm}
    0.3,                     !- Value Until Time 3
    12:00,                   !- Time 4 {hh:mm}
    0.9,                     !- Value Until Time 4
    13:00,                   !- Time 5 {hh:mm}
    0.8,                     !- Value Until Time 5
    17:00,                   !- Time 6 {hh:mm}
    0.9,                     !- Value Until Time 6
    18:00,                   !- Time 7 {hh:mm}
    0.5,                     !- Value Until Time 7
    20:00,                   !- Time 8 {hh:mm}
    0.3,                     !- Value Until Time 8
    21:00,                   !- Time 9 {hh:mm}
    0.2,                     !- Value Until Time 9
    22:00,                   !- Time 10 {hh:mm}
    0.21,                    !- Value Until Time 10
    23:00,                   !- Time 11 {hh:mm}
    0.1,                     !- Value Until Time 11
    24:00,                   !- Time 12 {hh:mm}
    0.05;                    !- Value Until Time 12

Schedule:Day:Interval,
    Schedule14_Profile_Profile_3_{00062},  !- Name
    Fraction,                !- Schedule Type Limits Name
    No,                      !- Interpolate to Timestep
    06:00,                   !- Time 1 {hh:mm}
    0.05,                    !- Value Until Time 1
    08:00,                   !- Time 2 {hh:mm}
    0.1,                     !- Value Until Time 2
    12:00,                   !- Time 3 {hh:mm}
    0.3,                     !- Value Until Time 3
    17:00,                   !- Time 4 {hh:mm}
    0.15,                    !- Value Until Time 4
    24:00,                   !- Time 5 {hh:mm}
    0.05;                    !- Value Until Time 5

Schedule:Day:Interval,
    Schedule14_Profile_Profile_1_{00060},  !- Name
    Fraction,                !- Schedule Type Limits Name
    No,                      !- Interpolate to Timestep
    05:00,                   !- Time 1 {hh:mm}
    0.05,                    !- Value Until Time 1
    23:00,                   !- Time 2 {hh:mm}
    1,                       !- Value Until Time 2
    24:00,                   !- Time 3 {hh:mm}
    0.05;                    !- Value Until Time 3

Schedule:Day:Interval,
    AllOffDesignDay,         !- Name
    Fraction,                !- Schedule Type Limits Name
    No,                      !- Interpolate to Timestep
    24:00,                   !- Time 1 {hh:mm}
    0;                       !- Value Until Time 1

Schedule:Day:Interval,
    Schedule15_Profile_Profile_4_{00069},  !- Name
    Fraction,                !- Schedule Type Limits Name
    No,                      !- Interpolate to Timestep
    06:00,                   !- Time 1 {hh:mm}
    0,                       !- Value Until Time 1
    18:00,                   !- Time 2 {hh:mm}
    0.05,                    !- Value Until Time 2
    24:00,                   !- Time 3 {hh:mm}
    0;                       !- Value Until Time 3

Schedule:Day:Interval,
    Schedule15_Profile_Profile_2_{00067},  !- Name
    Fraction,                !- Schedule Type Limits Name
    No,                      !- Interpolate to Timestep
    06:00,                   !- Time 1 {hh:mm}
    0,                       !- Value Until Time 1
    07:00,                   !- Time 2 {hh:mm}
    0.1,                     !- Value Until Time 2
    08:00,                   !- Time 3 {hh:mm}
    0.2,                     !- Value Until Time 3
    12:00,                   !- Time 4 {hh:mm}
    0.95,                    !- Value Until Time 4
    13:00,                   !- Time 5 {hh:mm}
    0.5,                     !- Value Until Time 5
    17:00,                   !- Time 6 {hh:mm}
    0.95,                    !- Value Until Time 6
    18:00,                   !- Time 7 {hh:mm}
    0.3,                     !- Value Until Time 7
    22:00,                   !- Time 8 {hh:mm}
    0.1,                     !- Value Until Time 8
    24:00,                   !- Time 9 {hh:mm}
    0.05;                    !- Value Until Time 9

Schedule:Day:Interval,
    Schedule15_Profile_Profile_3_{00068},  !- Name
    Fraction,                !- Schedule Type Limits Name
    No,                      !- Interpolate to Timestep
    06:00,                   !- Time 1 {hh:mm}
    0,                       !- Value Until Time 1
    08:00,                   !- Time 2 {hh:mm}
    0.1,                     !- Value Until Time 2
    12:00,                   !- Time 3 {hh:mm}
    0.3,                     !- Value Until Time 3
    17:00,                   !- Time 4 {hh:mm}
    0.1,                     !- Value Until Time 4
    19:00,                   !- Time 5 {hh:mm}
    0.05,                    !- Value Until Time 5
    24:00,                   !- Time 6 {hh:mm}
    0;                       !- Value Until Time 6

Schedule:Day:Interval,
    Schedule15_Profile_Profile_1_{00066},  !- Name
    Fraction,                !- Schedule Type Limits Name
    No,                      !- Interpolate to Timestep
    06:00,                   !- Time 1 {hh:mm}
    0,                       !- Value Until Time 1
    22:00,                   !- Time 2 {hh:mm}
    1,                       !- Value Until Time 2
    24:00,                   !- Time 3 {hh:mm}
    0;                       !- Value Until Time 3

Schedule:Day:Interval,
    AllOffDesignDay 1,       !- Name
    Fraction,                !- Schedule Type Limits Name
    No,                      !- Interpolate to Timestep
    24:00,                   !- Time 1 {hh:mm}
    0;                       !- Value Until Time 1


!-   ===========  ALL OBJECTS IN CLASS: SCHEDULE:WEEK:DAILY ===========

Schedule:Week:Daily,
    Schedule13_{00058},      !- Name
    90.1 Office HVAC_Profile_Profile_3_HtgSp_UnoccupiedAvailable_{00056},  !- Sunday Schedule:Day Name
    90.1 Office HVAC_Profile_Profile_1_HtgSp_UnoccupiedAvailable_{00052},  !- Monday Schedule:Day Name
    90.1 Office HVAC_Profile_Profile_1_HtgSp_UnoccupiedAvailable_{00052},  !- Tuesday Schedule:Day Name
    90.1 Office HVAC_Profile_Profile_1_HtgSp_UnoccupiedAvailable_{00052},  !- Wednesday Schedule:Day Name
    90.1 Office HVAC_Profile_Profile_1_HtgSp_UnoccupiedAvailable_{00052},  !- Thursday Schedule:Day Name
    90.1 Office HVAC_Profile_Profile_1_HtgSp_UnoccupiedAvailable_{00052},  !- Friday Schedule:Day Name
    90.1 Office HVAC_Profile_Profile_2_HtgSp_UnoccupiedAvailable_{00054},  !- Saturday Schedule:Day Name
    90.1 Office HVAC_Profile_Profile_3_HtgSp_UnoccupiedAvailable_{00056},  !- Holiday Schedule:Day Name
    90.1 Office HVAC_Profile_Profile_1_HtgSp_UnoccupiedAvailable_{00052},  !- SummerDesignDay Schedule:Day Name
    VRF10_Thermostat_HtgSp_at_WDD,  !- WinterDesignDay Schedule:Day Name
    90.1 Office HVAC_Profile_Profile_3_HtgSp_UnoccupiedAvailable_{00056},  !- CustomDay1 Schedule:Day Name
    90.1 Office HVAC_Profile_Profile_3_HtgSp_UnoccupiedAvailable_{00056};  !- CustomDay2 Schedule:Day Name

Schedule:Week:Daily,
    Schedule13_{00050},      !- Name
    90.1 Office HVAC_Profile_Profile_3_ClgSp_UnoccupiedAvailable_{00048},  !- Sunday Schedule:Day Name
    90.1 Office HVAC_Profile_Profile_1_ClgSp_UnoccupiedAvailable_{00044},  !- Monday Schedule:Day Name
    90.1 Office HVAC_Profile_Profile_1_ClgSp_UnoccupiedAvailable_{00044},  !- Tuesday Schedule:Day Name
    90.1 Office HVAC_Profile_Profile_1_ClgSp_UnoccupiedAvailable_{00044},  !- Wednesday Schedule:Day Name
    90.1 Office HVAC_Profile_Profile_1_ClgSp_UnoccupiedAvailable_{00044},  !- Thursday Schedule:Day Name
    90.1 Office HVAC_Profile_Profile_1_ClgSp_UnoccupiedAvailable_{00044},  !- Friday Schedule:Day Name
    90.1 Office HVAC_Profile_Profile_2_ClgSp_UnoccupiedAvailable_{00046},  !- Saturday Schedule:Day Name
    90.1 Office HVAC_Profile_Profile_3_ClgSp_UnoccupiedAvailable_{00048},  !- Holiday Schedule:Day Name
    90.1 Office HVAC_Profile_Profile_1_ClgSp_UnoccupiedAvailable_{00044},  !- SummerDesignDay Schedule:Day Name
    VRF10_Thermostat_ClgSp_at_WDD,  !- WinterDesignDay Schedule:Day Name
    90.1 Office HVAC_Profile_Profile_3_ClgSp_UnoccupiedAvailable_{00048},  !- CustomDay1 Schedule:Day Name
    90.1 Office HVAC_Profile_Profile_3_ClgSp_UnoccupiedAvailable_{00048};  !- CustomDay2 Schedule:Day Name

Schedule:Week:Daily,
    Schedule14_{00064},      !- Name
    Schedule14_Profile_Profile_4_{00063},  !- Sunday Schedule:Day Name
    Schedule14_Profile_Profile_2_{00061},  !- Monday Schedule:Day Name
    Schedule14_Profile_Profile_2_{00061},  !- Tuesday Schedule:Day Name
    Schedule14_Profile_Profile_2_{00061},  !- Wednesday Schedule:Day Name
    Schedule14_Profile_Profile_2_{00061},  !- Thursday Schedule:Day Name
    Schedule14_Profile_Profile_2_{00061},  !- Friday Schedule:Day Name
    Schedule14_Profile_Profile_3_{00062},  !- Saturday Schedule:Day Name
    Schedule14_Profile_Profile_4_{00063},  !- Holiday Schedule:Day Name
    Schedule14_Profile_Profile_1_{00060},  !- SummerDesignDay Schedule:Day Name
    AllOffDesignDay,         !- WinterDesignDay Schedule:Day Name
    Schedule14_Profile_Profile_4_{00063},  !- CustomDay1 Schedule:Day Name
    Schedule14_Profile_Profile_4_{00063};  !- CustomDay2 Schedule:Day Name

Schedule:Week:Daily,
    Schedule15_{00070},      !- Name
    Schedule15_Profile_Profile_4_{00069},  !- Sunday Schedule:Day Name
    Schedule15_Profile_Profile_2_{00067},  !- Monday Schedule:Day Name
    Schedule15_Profile_Profile_2_{00067},  !- Tuesday Schedule:Day Name
    Schedule15_Profile_Profile_2_{00067},  !- Wednesday Schedule:Day Name
    Schedule15_Profile_Profile_2_{00067},  !- Thursday Schedule:Day Name
    Schedule15_Profile_Profile_2_{00067},  !- Friday Schedule:Day Name
    Schedule15_Profile_Profile_3_{00068},  !- Saturday Schedule:Day Name
    Schedule15_Profile_Profile_4_{00069},  !- Holiday Schedule:Day Name
    Schedule15_Profile_Profile_1_{00066},  !- SummerDesignDay Schedule:Day Name
    AllOffDesignDay 1,       !- WinterDesignDay Schedule:Day Name
    Schedule15_Profile_Profile_4_{00069},  !- CustomDay1 Schedule:Day Name
    Schedule15_Profile_Profile_4_{00069};  !- CustomDay2 Schedule:Day Name


!-   ===========  ALL OBJECTS IN CLASS: SCHEDULE:YEAR ===========

Schedule:Year,
    90.1 Office HVAC_HtgSp_{00051},  !- Name
    Temperature,             !- Schedule Type Limits Name
    Schedule13_{00058},      !- Schedule:Week Name 1
    1,                       !- Start Month 1
    1,                       !- Start Day 1
    12,                      !- End Month 1
    31;                      !- End Day 1

Schedule:Year,
    90.1 Office HVAC_ClgSp_{00043},  !- Name
    Temperature,             !- Schedule Type Limits Name
    Schedule13_{00050},      !- Schedule:Week Name 1
    1,                       !- Start Month 1
    1,                       !- Start Day 1
    12,                      !- End Month 1
    31;                      !- End Day 1

Schedule:Year,
    90.1 Office Lights/Elec_Schedule14_{00059},  !- Name
    Fraction,                !- Schedule Type Limits Name
    Schedule14_{00064},      !- Schedule:Week Name 1
    1,                       !- Start Month 1
    1,                       !- Start Day 1
    12,                      !- End Month 1
    31;                      !- End Day 1

Schedule:Year,
    90.1 Office Occupancy_Schedule15_{00065},  !- Name
    Fraction,                !- Schedule Type Limits Name
    Schedule15_{00070},      !- Schedule:Week Name 1
    1,                       !- Start Month 1
    1,                       !- Start Day 1
    12,                      !- End Month 1
    31;                      !- End Day 1


!-   ===========  ALL OBJECTS IN CLASS: SCHEDULE:COMPACT ===========

Schedule:Compact,
    Zone_Zone for space CoreSpace_CoreSpace_{00270} Thermostat Schedule,  !- Name
    Zone_Zone for space CoreSpace_CoreSpace_{00270} Thermostat Schedule Type Limits,  !- Schedule Type Limits Name
    Through: 12/31,          !- Field 1
    For: AllDays,            !- Field 2
    Until: 24:00,            !- Field 3
    4;                       !- Field 4

Schedule:Compact,
    Zone_Zone for space EastSpace_EastSpace_{00268} Thermostat Schedule,  !- Name
    Zone_Zone for space EastSpace_EastSpace_{00268} Thermostat Schedule Type Limits,  !- Schedule Type Limits Name
    Through: 12/31,          !- Field 1
    For: AllDays,            !- Field 2
    Until: 24:00,            !- Field 3
    4;                       !- Field 4

Schedule:Compact,
    Zone_Zone for space NorthSpace_NorthSpace_{00266} Thermostat Schedule,  !- Name
    Zone_Zone for space NorthSpace_NorthSpace_{00266} Thermostat Schedule Type Limits,  !- Schedule Type Limits Name
    Through: 12/31,          !- Field 1
    For: AllDays,            !- Field 2
    Until: 24:00,            !- Field 3
    4;                       !- Field 4

Schedule:Compact,
    Zone_Zone for space SouthSpace_SouthSpace_{00264} Thermostat Schedule,  !- Name
    Zone_Zone for space SouthSpace_SouthSpace_{00264} Thermostat Schedule Type Limits,  !- Schedule Type Limits Name
    Through: 12/31,          !- Field 1
    For: AllDays,            !- Field 2
    Until: 24:00,            !- Field 3
    4;                       !- Field 4

Schedule:Compact,
    Zone_Zone for space WestSpace_WestSpace_{00262} Thermostat Schedule,  !- Name
    Zone_Zone for space WestSpace_WestSpace_{00262} Thermostat Schedule Type Limits,  !- Schedule Type Limits Name
    Through: 12/31,          !- Field 1
    For: AllDays,            !- Field 2
    Until: 24:00,            !- Field 3
    4;                       !- Field 4

Schedule:Compact,
    Schedule_SpaceInfiltration_EastSpace{00191},  !- Name
    Fraction,                !- Schedule Type Limits Name
    Through: 12/31,          !- Field 1
    For: WinterDesignDay,    !- Field 2
    Until: 24:00,            !- Field 3
    1,                       !- Field 4
    For: SummerDesignDay,    !- Field 5
    Until: 24:00,            !- Field 6
    0.8333333,               !- Field 7
    For: AllOtherDays,       !- Field 8
    Until: 24:00,            !- Field 9
    0.4166667;               !- Field 10

Schedule:Compact,
    Schedule_SpaceInfiltration_NorthSpace{00175},  !- Name
    Fraction,                !- Schedule Type Limits Name
    Through: 12/31,          !- Field 1
    For: WinterDesignDay,    !- Field 2
    Until: 24:00,            !- Field 3
    1,                       !- Field 4
    For: SummerDesignDay,    !- Field 5
    Until: 24:00,            !- Field 6
    0.8333333,               !- Field 7
    For: AllOtherDays,       !- Field 8
    Until: 24:00,            !- Field 9
    0.4166667;               !- Field 10

Schedule:Compact,
    Schedule_SpaceInfiltration_SouthSpace{00143},  !- Name
    Fraction,                !- Schedule Type Limits Name
    Through: 12/31,          !- Field 1
    For: WinterDesignDay,    !- Field 2
    Until: 24:00,            !- Field 3
    1,                       !- Field 4
    For: SummerDesignDay,    !- Field 5
    Until: 24:00,            !- Field 6
    0.8333333,               !- Field 7
    For: AllOtherDays,       !- Field 8
    Until: 24:00,            !- Field 9
    0.4166667;               !- Field 10

Schedule:Compact,
    Schedule_SpaceInfiltration_WestSpace{00159},  !- Name
    Fraction,                !- Schedule Type Limits Name
    Through: 12/31,          !- Field 1
    For: WinterDesignDay,    !- Field 2
    Until: 24:00,            !- Field 3
    1,                       !- Field 4
    For: SummerDesignDay,    !- Field 5
    Until: 24:00,            !- Field 6
    0.8333333,               !- Field 7
    For: AllOtherDays,       !- Field 8
    Until: 24:00,            !- Field 9
    0.4166667;               !- Field 10


!-   ===========  ALL OBJECTS IN CLASS: SCHEDULE:CONSTANT ===========

Schedule:Constant,
    Schedule_SchType_Constant_{00136},  !- Name
    ActivityLevel,           !- Schedule Type Limits Name
    161.189105;              !- Hourly Value

Schedule:Constant,
    Schedule_SchType_Constant_{00152},  !- Name
    ActivityLevel,           !- Schedule Type Limits Name
    219.803325;              !- Hourly Value

Schedule:Constant,
    Schedule_SchType_Constant_{00168},  !- Name
    ActivityLevel,           !- Schedule Type Limits Name
    131.881995;              !- Hourly Value

Schedule:Constant,
    Schedule_SchType_Constant_{00184},  !- Name
    ActivityLevel,           !- Schedule Type Limits Name
    102.574891707865;        !- Hourly Value

Schedule:Constant,
    Schedule_SchType_Constant_{00195},  !- Name
    ActivityLevel,           !- Schedule Type Limits Name
    131.881995;              !- Hourly Value

Schedule:Constant,
    Always On Discrete,      !- Name
    ,                        !- Schedule Type Limits Name
    1;                       !- Hourly Value

Schedule:Constant,
    Always Off Discrete,     !- Name
    ,                        !- Schedule Type Limits Name
    0;                       !- Hourly Value

Schedule:Constant,
    Always On Continuous,    !- Name
    ,                        !- Schedule Type Limits Name
    1;                       !- Hourly Value


!-   ===========  ALL OBJECTS IN CLASS: MATERIAL ===========

Material,
    Default Ceiling Assembly_Acoustical tile_{00015},  !- Name
    MediumRough,             !- Roughness