  Version,22.1;

  Timestep,6;

  Building,
    SubjectBuilding,         !- Name
    ,                        !- North Axis {deg}
    ,                        !- Terrain
    ,                        !- Loads Convergence Tolerance Value {W}
    ,                        !- Temperature Convergence Tolerance Value {deltaC}
    ,                        !- Solar Distribution
    ,                        !- Maximum Number of Warmup Days
    ;                        !- Minimum Number of Warmup Days

  Zone,
    101 - North,             !- Name
    0,                       !- Direction of Relative North {deg}
    0,                       !- X Origin {m}
    0,                       !- Y Origin {m}
    0,                       !- Z Origin {m}
    ,                        !- Type
    1,                       !- Multiplier
    ,                        !- Ceiling Height {m}
    ,                        !- Volume {m3}
    ,                        !- Floor Area {m2}
    ,                        !- Zone Inside Convection Algorithm
    ,                        !- Zone Outside Convection Algorithm
    Yes;                     !- Part of Total Floor Area

  BuildingSurface:Detailed,
    Base Building_101 - North_Ceiling_54,  !- Name
    Ceiling,                 !- Surface Type
    Acoustic Tile Ceiling,   !- Construction Name
    101 - North,             !- Zone Name
    ,                        !- Space Name
    Surface,                 !- Outside Boundary Condition
    Base Building_Ceiling Space for 101 - North_Floor_115,  !- Outside Boundary Condition Object
    NoSun,                   !- Sun Exposure
    NoWind,                  !- Wind Exposure
    ,                        !- View Factor to Ground
    ,                        !- Number of Vertices
    34.72,2.97,2.74,  !- X,Y,Z ==> Vertex 1 {m}
    31.79,10.04,2.74,  !- X,Y,Z ==> Vertex 2 {m}
    8.86,0.54,2.74,  !- X,Y,Z ==> Vertex 3 {m}
    11.79,-6.53,2.74;  !- X,Y,Z ==> Vertex 4 {m}

  BuildingSurface:Detailed,
    Base Building_101 - North_Floor_55,  !- Name
    Floor,                   !- Surface Type
    2016 Zone 4 Slab-on-grade floor_ unheated,  !- Construction Name
    101 - North,             !- Zone Name
    ,                        !- Space Name
    Adiabatic,               !- Outside Boundary Condition
    ,                        !- Outside Boundary Condition Object
    NoSun,                   !- Sun Exposure
    NoWind,                  !- Wind Exposure
    ,                        !- View Factor to Ground
    ,                        !- Number of Vertices
    11.79,-6.53,0,  !- X,Y,Z ==> Vertex 1 {m}
    8.86,0.54,0,  !- X,Y,Z ==> Vertex 2 {m}
    31.79,10.04,0,  !- X,Y,Z ==> Vertex 3 {m}
    34.72,2.97,0;  !- X,Y,Z ==> Vertex 4 {m}

  BuildingSurface:Detailed,
    Base Building_101 - North_Wall_47,  !- Name
    Wall,                    !- Surface Type
    2016 Zone 4 Above-grade steel-framed wall,  !- Construction Name
    101 - North,             !- Zone Name
    ,                        !- Space Name
    Outdoors,                !- Outside Boundary Condition
    ,                        !- Outside Boundary Condition Object
    SunExposed,              !- Sun Exposure
    WindExposed,             !- Wind Exposure
    ,                        !- View Factor to Ground
    ,                        !- Number of Vertices
    31.79,10.04,2.74,  !- X,Y,Z ==> Vertex 1 {m}
    31.79,10.04,0,  !- X,Y,Z ==> Vertex 2 {m}
    8.86,0.54,0,  !- X,Y,Z ==> Vertex 3 {m}
    8.86,0.54,2.74;  !- X,Y,Z ==> Vertex 4 {m}

  FenestrationSurface:Detailed,
    Base Building_101 - North_Wall_47_Window_48,  !- Name
    Window,                  !- Surface Type
    Construction 2,          !- Construction Name
    Base Building_101 - North_Wall_47,  !- Building Surface Name
    ,                        !- Outside Boundary Condition Object
    ,                        !- View Factor to Ground
    ,                        !- Frame and Divider Name
    ,                        !- Multiplier
    ,                        !- Number of Vertices
    14.74,2.98,2.59,  !- X,Y,Z ==> Vertex 1 {m}
    14.74,2.98,0.76,  !- X,Y,Z ==> Vertex 2 {m}
    10.23,1.11,0.76,  !- X,Y,Z ==> Vertex 3 {m}
    10.23,1.11,2.59;  !- X,Y,Z ==> Vertex 4 {m}

  FenestrationSurface:Detailed,
    Base Building_101 - North_Wall_47_Window_49,  !- Name
    Window,                  !- Surface Type
    Construction 2,          !- Construction Name
    Base Building_101 - North_Wall_47,  !- Building Surface Name
    ,                        !- Outside Boundary Condition Object
    ,                        !- View Factor to Ground
    ,                        !- Frame and Divider Name
    ,                        !- Multiplier
    ,                        !- Number of Vertices
    23.51,6.61,2.59,  !- X,Y,Z ==> Vertex 1 {m}
    23.51,6.61,0.76,  !- X,Y,Z ==> Vertex 2 {m}
    19,4.74,0.76,  !- X,Y,Z ==> Vertex 3 {m}
    19,4.74,2.59;  !- X,Y,Z ==> Vertex 4 {m}

  FenestrationSurface:Detailed,
    Base Building_101 - North_Wall_47_Window_50,  !- Name
    Window,                  !- Surface Type
    Construction 2,          !- Construction Name
    Base Building_101 - North_Wall_47,  !- Building Surface Name
    ,                        !- Outside Boundary Condition Object
    ,                        !- View Factor to Ground
    ,                        !- Frame and Divider Name
    ,                        !- Multiplier
    ,                        !- Number of Vertices
    30.33,9.43,2.59,  !- X,Y,Z ==> Vertex 1 {m}
    30.33,9.43,0.76,  !- X,Y,Z ==> Vertex 2 {m}
    25.83,7.57,0.76,  !- X,Y,Z ==> Vertex 3 {m}
    25.83,7.57,2.59;  !- X,Y,Z ==> Vertex 4 {m}

  BuildingSurface:Detailed,
    Base Building_101 - North_Wall_51,  !- Name
    Wall,                    !- Surface Type
    Interior Gypsum Board Wall,  !- Construction Name
    101 - North,             !- Zone Name
    ,                        !- Space Name
    Surface,                 !- Outside Boundary Condition
    Base Building_102 - Northeast_Wall_44,  !- Outside Boundary Condition Object
    NoSun,                   !- Sun Exposure
    NoWind,                  !- Wind Exposure
    ,                        !- View Factor to Ground
    ,                        !- Number of Vertices
    34.72,2.97,2.74,  !- X,Y,Z ==> Vertex 1 {m}
    34.72,2.97,0,  !- X,Y,Z ==> Vertex 2 {m}
    31.79,10.04,0,  !- X,Y,Z ==> Vertex 3 {m}
    31.79,10.04,2.74;  !- X,Y,Z ==> Vertex 4 {m}

  BuildingSurface:Detailed,
    Base Building_101 - North_Wall_52,  !- Name
    Wall,                    !- Surface Type
    Interior Gypsum Board Wall,  !- Construction Name
    101 - North,             !- Zone Name
    ,                        !- Space Name
    Surface,                 !- Outside Boundary Condition
    Base Building_108 - Interior_Wall_66,  !- Outside Boundary Condition Object
    NoSun,                   !- Sun Exposure
    NoWind,                  !- Wind Exposure
    ,                        !- View Factor to Ground
    ,                        !- Number of Vertices
    11.79,-6.53,2.74,  !- X,Y,Z ==> Vertex 1 {m}
    11.79,-6.53,0,  !- X,Y,Z ==> Vertex 2 {m}
    34.72,2.97,0,  !- X,Y,Z ==> Vertex 3 {m}
    34.72,2.97,2.74;  !- X,Y,Z ==> Vertex 4 {m}

  BuildingSurface:Detailed,
    Base Building_101 - North_Wall_53,  !- Name
    Wall,                    !- Surface Type
    Interior Gypsum Board Wall,  !- Construction Name
    101 - North,             !- Zone Name
    ,                        !- Space Name
    Surface,                 !- Outside Boundary Condition
    Base Building_107 - Northwest_Wall_62,  !- Outside Boundary Condition Object
    NoSun,                   !- Sun Exposure
    NoWind,                  !- Wind Exposure
    ,                        !- View Factor to Ground
    ,                        !- Number of Vertices
    8.86,0.54,2.74,  !- X,Y,Z ==> Vertex 1 {m}
    8.86,0.54,0,  !- X,Y,Z ==> Vertex 2 {m}
    11.79,-6.53,0,  !- X,Y,Z ==> Vertex 3 {m}
    11.79,-6.53,2.74;  !- X,Y,Z ==> Vertex 4 {m}

  People,
    101 - North_People_,     !- Name
    101 - North,             !- Zone or ZoneList or Space or SpaceList Name
    90.1 Office Occupancy_WDD_OFF,  !- Number of People Schedule Name
    Area/Person,             !- Number of People Calculation Method
    ,                        !- Number of People
    ,                        !- People per Floor Area {person/m2}
    18.580608,               !- Floor Area per Person {m2/person}
    0.7,                     !- Fraction Radiant
    0.544444444444444,       !- Sensible Heat Fraction
    Schedule_SchType_Constant,  !- Activity Level Schedule Name
    4.298e-08;               !- Carbon Dioxide Generation Rate {m3/s-W}

  Lights,
    101 - North_OHLight,     !- Name
    101 - North,             !- Zone or ZoneList or Space or SpaceList Name
    90.1 Office Lights/Elec_WDD_OFF,  !- Schedule Name
    LightingLevel,           !- Design Level Calculation Method
    1284.37651340068,        !- Lighting Level {W}
    ,                        !- Watts per Zone Floor Area {W/m2}
    ,                        !- Watts per Person {W/person}
    0,                       !- Return Air Fraction
    0.289,                   !- Fraction Radiant
    0.267,                   !- Fraction Visible
    0,                       !- Fraction Replaceable
    General;                 !- End-Use Subcategory

  Schedule:Year,
    90.1 Office Lights/Elec_WDD_OFF,  !- Name
    Fraction,                !- Schedule Type Limits Name
    Schedule_869358439,      !- Schedule:Week Name 1
    1,                       !- Start Month 1
    1,                       !- Start Day 1
    12,                      !- End Month 1
    31;                      !- End Day 1

  ScheduleTypeLimits,
    Fraction,                !- Name
    0,                       !- Lower Limit Value
    1,                       !- Upper Limit Value
    Continuous,              !- Numeric Type
    dimensionless;           !- Unit Type

  Schedule:Week:Daily,
    Schedule_869358439,      !- Name
    Schedule869358439_Profile_Profile_4,  !- Sunday Schedule:Day Name
    Schedule869358439_Profile_Profile_2,  !- Monday Schedule:Day Name
    Schedule869358439_Profile_Profile_2,  !- Tuesday Schedule:Day Name
    Schedule869358439_Profile_Profile_2,  !- Wednesday Schedule:Day Name
    Schedule869358439_Profile_Profile_2,  !- Thursday Schedule:Day Name
    Schedule869358439_Profile_Profile_2,  !- Friday Schedule:Day Name
    Schedule869358439_Profile_Profile_3,  !- Saturday Schedule:Day Name
    Schedule869358439_Profile_Profile_4,  !- Holiday Schedule:Day Name
    Schedule869358439_Profile_Profile_1,  !- SummerDesignDay Schedule:Day Name
    Daily_AlwaysOff,         !- WinterDesignDay Schedule:Day Name
    Schedule869358439_Profile_Profile_4,  !- CustomDay1 Schedule:Day Name
    Schedule869358439_Profile_Profile_4;  !- CustomDay2 Schedule:Day Name

  Schedule:Day:Interval,
    Schedule869358439_Profile_Profile_4,  !- Name
    Fraction,                !- Schedule Type Limits Name
    No,                      !- Interpolate to Timestep
    24:00,                   !- Time 1
    0.05;                    !- Value Until Time 1

  Schedule:Day:Interval,
    Schedule869358439_Profile_Profile_2,  !- Name
    Fraction,                !- Schedule Type Limits Name
    No,                      !- Interpolate to Timestep
    05:00,                   !- Time 1
    0.05,                    !- Value Until Time 1
    07:00,                   !- Time 2
    0.1,                     !- Value Until Time 2
    08:00,                   !- Time 3
    0.3,                     !- Value Until Time 3
    12:00,                   !- Time 4
    0.9,                     !- Value Until Time 4
    13:00,                   !- Time 5
    0.8,                     !- Value Until Time 5
    17:00,                   !- Time 6
    0.9,                     !- Value Until Time 6
    18:00,                   !- Time 7
    0.5,                     !- Value Until Time 7
    20:00,                   !- Time 8
    0.3,                     !- Value Until Time 8
    22:00,                   !- Time 9
    0.2,                     !- Value Until Time 9
    23:00,                   !- Time 10
    0.1,                     !- Value Until Time 10
    24:00,                   !- Time 11
    0.05;                    !- Value Until Time 11

  Schedule:Day:Interval,
    Schedule869358439_Profile_Profile_3,  !- Name
    Fraction,                !- Schedule Type Limits Name
    No,                      !- Interpolate to Timestep
    06:00,                   !- Time 1
    0.05,                    !- Value Until Time 1
    08:00,                   !- Time 2
    0.1,                     !- Value Until Time 2
    12:00,                   !- Time 3
    0.3,                     !- Value Until Time 3
    17:00,                   !- Time 4
    0.15,                    !- Value Until Time 4
    24:00,                   !- Time 5
    0.05;                    !- Value Until Time 5

  Schedule:Day:Interval,
    Schedule869358439_Profile_Profile_1,  !- Name
    Fraction,                !- Schedule Type Limits Name
    No,                      !- Interpolate to Timestep
    05:00,                   !- Time 1
    0.05,                    !- Value Until Time 1
    23:00,                   !- Time 2
    1,                       !- Value Until Time 2
    24:00,                   !- Time 3
    0.05;                    !- Value Until Time 3

  Schedule:Day:Interval,
    Daily_AlwaysOff,         !- Name
    Fraction,                !- Schedule Type Limits Name
    No,                      !- Interpolate to Timestep
    24:00,                   !- Time 1
    0;                       !- Value Until Time 1

  ElectricEquipment,
    101 - North_ElectricEqpt,!- Name
    101 - North,             !- Zone or ZoneList or Space or SpaceList Name
    90.1 Office Lights/Elec_WDD_OFF,  !- Schedule Name
    Watts/Area,              !- Design Level Calculation Method
    ,                        !- Design Level {W}
    8.0729325,               !- Watts per Zone Floor Area {W/m2}
    ,                        !- Watts per Person {W/person}
    0,                       !- Fraction Latent
    0.25,                    !- Fraction Radiant
    0,                       !- Fraction Lost
    General;                 !- End-Use Subcategory

  OtherEquipment,
    101 - North_FloorSlabHeatLoss,  !- Name
    None,                    !- Fuel Type
    101 - North,             !- Zone or ZoneList or Space or SpaceList Name
    GroundFloorandWallHeatLoss_Sch,  !- Schedule Name
    EquipmentLevel,          !- Design Level Calculation Method
    -762.237227169357,       !- Design Level {W}
    ,                        !- Power per Zone Floor Area {W/m2}
    ,                        !- Power per Person {W/person}
    0,                       !- Fraction Latent
    0,                       !- Fraction Radiant
    0,                       !- Fraction Lost
    ,                        !- Carbon Dioxide Generation Rate {m3/s-W}
    General;                 !- End-Use Subcategory

  ZoneInfiltration:DesignFlowRate,
    101 - North_Infiltration,!- Name
    101 - North,             !- Zone or ZoneList Name
    101 - North_Infiltration_Schedule,  !- Schedule Name
    AirChanges/Hour,         !- Design Flow Rate Calculation Method
    ,                        !- Design Flow Rate {m3/s}
    ,                        !- Flow per Zone Floor Area {m3/s-m2}
    ,                        !- Flow per Exterior Surface Area {m3/s-m2}
    0.200000002980232,       !- Air Changes per Hour {1/hr}
    1,                       !- Constant Term Coefficient
    0,                       !- Temperature Term Coefficient
    0,                       !- Velocity Term Coefficient
    0;                       !- Velocity Squared Term Coefficient

  ZoneControl:Thermostat,
    101 - North Thermostat,  !- Name
    101 - North,             !- Zone or ZoneList Name
    101 - North Thermostat Schedule,  !- Control Type Schedule Name
    ThermostatSetpoint:DualSetpoint,  !- Control 1 Object Type
    S04.1 - Dehumid 40% Elec_Tstat 7,  !- Control 1 Name
    ,                        !- Control 2 Object Type
    ,                        !- Control 2 Name
    ,                        !- Control 3 Object Type
    ,                        !- Control 3 Name
    ,                        !- Control 4 Object Type
    ,                        !- Control 4 Name
    0;                       !- Temperature Difference Between Cutout And Setpoint {deltaC}

  Schedule:Compact,
    101 - North Thermostat Schedule,  !- Name
    101 - North Thermostat Schedule Type Limits,  !- Schedule Type Limits Name
    Through: 12/31,          !- Field 1
    For: AllDays,            !- Field 2
    Until: 24:00,4;          !- Field 3

  ScheduleTypeLimits,
    101 - North Thermostat Schedule Type Limits,  !- Name
    0,                       !- Lower Limit Value
    4,                       !- Upper Limit Value
    DISCRETE;                !- Numeric Type

  ThermostatSetpoint:DualSetpoint,
    S04.1 - Dehumid 40% Elec_Tstat 7,  !- Name
    Fan / Tstat_HtgSp,       !- Heating Setpoint Temperature Schedule Name
    Fan / Tstat_ClgSp;       !- Cooling Setpoint Temperature Schedule Name

  Schedule:Year,
    Fan / Tstat_HtgSp,       !- Name
    Temperature,             !- Schedule Type Limits Name
    Schedule_141761182,      !- Schedule:Week Name 1
    1,                       !- Start Month 1
    1,                       !- Start Day 1
    12,                      !- End Month 1
    31;                      !- End Day 1

  ScheduleTypeLimits,
    Temperature,             !- Name
    -100,                    !- Lower Limit Value
    200,                     !- Upper Limit Value
    Continuous,              !- Numeric Type
    temperature;             !- Unit Type

  Schedule:Week:Daily,
    Schedule_141761182,      !- Name
    Fan / Tstat_Profile_Profile_3_HtgSp_UnoccupiedAvailable,  !- Sunday Schedule:Day Name
    Fan / Tstat_Profile_Profile_2_HtgSp_UnoccupiedAvailable,  !- Monday Schedule:Day Name
    Fan / Tstat_Profile_Profile_2_HtgSp_UnoccupiedAvailable,  !- Tuesday Schedule:Day Name
    Fan / Tstat_Profile_Profile_2_HtgSp_UnoccupiedAvailable,  !- Wednesday Schedule:Day Name
    Fan / Tstat_Profile_Profile_2_HtgSp_UnoccupiedAvailable,  !- Thursday Schedule:Day Name
    Fan / Tstat_Profile_Profile_2_HtgSp_UnoccupiedAvailable,  !- Friday Schedule:Day Name
    Fan / Tstat_Profile_Profile_3_HtgSp_UnoccupiedAvailable,  !- Saturday Schedule:Day Name
    Fan / Tstat_Profile_Profile_3_HtgSp_UnoccupiedAvailable,  !- Holiday Schedule:Day Name
    Fan / Tstat_Profile_Profile_1_HtgSp_UnoccupiedAvailable,  !- SummerDesignDay Schedule:Day Name
    S04.1 - Dehumid 40% Elec_Thermostat_HtgSp_at_WDD,  !- WinterDesignDay Schedule:Day Name
    Fan / Tstat_Profile_Profile_3_HtgSp_UnoccupiedAvailable,  !- CustomDay1 Schedule:Day Name
    Fan / Tstat_Profile_Profile_3_HtgSp_UnoccupiedAvailable;  !- CustomDay2 Schedule:Day Name

  Schedule:Day:Interval,
    Fan / Tstat_Profile_Profile_3_HtgSp_UnoccupiedAvailable,  !- Name
    Temperature,             !- Schedule Type Limits Name
    No,                      !- Interpolate to Timestep
    24:00,                   !- Time 1
    18.3333333333333;        !- Value Until Time 1

  Schedule:Day:Interval,
    Fan / Tstat_Profile_Profile_2_HtgSp_UnoccupiedAvailable,  !- Name
    Temperature,             !- Schedule Type Limits Name
    No,                      !- Interpolate to Timestep
    06:00,                   !- Time 1
    18.3333333333333,        !- Value Until Time 1
    21:00,                   !- Time 2
    21.1111111111111,        !- Value Until Time 2
    24:00,                   !- Time 3
    18.3333333333333;        !- Value Until Time 3

  Schedule:Day:Interval,
    Fan / Tstat_Profile_Profile_1_HtgSp_UnoccupiedAvailable,  !- Name
    Temperature,             !- Schedule Type Limits Name
    No,                      !- Interpolate to Timestep
    06:00,                   !- Time 1
    18.3333333333333,        !- Value Until Time 1
    21:00,                   !- Time 2
    21.1111111111111,        !- Value Until Time 2
    24:00,                   !- Time 3
    18.3333333333333;        !- Value Until Time 3

  Schedule:Day:Interval,
    S04.1 - Dehumid 40% Elec_Thermostat_HtgSp_at_WDD,  !- Name
    Temperature,             !- Schedule Type Limits Name
    No,                      !- Interpolate to Timestep
    24:00,                   !- Time 1
    21.1111111111111;        !- Value Until Time 1

  Schedule:Year,
    Fan / Tstat_ClgSp,       !- Name
    Temperature,             !- Schedule Type Limits Name
    Schedule_141761181,      !- Schedule:Week Name 1
    1,                       !- Start Month 1
    1,                       !- Start Day 1
    12,                      !- End Month 1
    31;                      !- End Day 1

  Schedule:Week:Daily,
    Schedule_141761181,      !- Name
    Fan / Tstat_Profile_Profile_3_ClgSp_UnoccupiedAvailable,  !- Sunday Schedule:Day Name
    Fan / Tstat_Profile_Profile_2_ClgSp_UnoccupiedAvailable,  !- Monday Schedule:Day Name
    Fan / Tstat_Profile_Profile_2_ClgSp_UnoccupiedAvailable,  !- Tuesday Schedule:Day Name
    Fan / Tstat_Profile_Profile_2_ClgSp_UnoccupiedAvailable,  !- Wednesday Schedule:Day Name
    Fan / Tstat_Profile_Profile_2_ClgSp_UnoccupiedAvailable,  !- Thursday Schedule:Day Name
    Fan / Tstat_Profile_Profile_2_ClgSp_UnoccupiedAvailable,  !- Friday Schedule:Day Name
    Fan / Tstat_Profile_Profile_3_ClgSp_UnoccupiedAvailable,  !- Saturday Schedule:Day Name
    Fan / Tstat_Profile_Profile_3_ClgSp_UnoccupiedAvailable,  !- Holiday Schedule:Day Name
    Fan / Tstat_Profile_Profile_1_ClgSp_UnoccupiedAvailable,  !- SummerDesignDay Schedule:Day Name
    S04.1 - Dehumid 40% Elec_Thermostat_ClgSp_at_WDD,  !- WinterDesignDay Schedule:Day Name
    Fan / Tstat_Profile_Profile_3_ClgSp_UnoccupiedAvailable,  !- CustomDay1 Schedule:Day Name
    Fan / Tstat_Profile_Profile_3_ClgSp_UnoccupiedAvailable;  !- CustomDay2 Schedule:Day Name

  Schedule:Day:Interval,
    Fan / Tstat_Profile_Profile_3_ClgSp_UnoccupiedAvailable,  !- Name
    Temperature,             !- Schedule Type Limits Name
    No,                      !- Interpolate to Timestep
    24:00,                   !- Time 1
    26.6666666666667;        !- Value Until Time 1

  Schedule:Day:Interval,
    Fan / Tstat_Profile_Profile_2_ClgSp_UnoccupiedAvailable,  !- Name
    Temperature,             !- Schedule Type Limits Name
    No,                      !- Interpolate to Timestep
    06:00,                   !- Time 1
    26.6666666666667,        !- Value Until Time 1
    21:00,                   !- Time 2
    23.8888888888889,        !- Value Until Time 2
    24:00,                   !- Time 3
    26.6666666666667;        !- Value Until Time 3

  Schedule:Day:Interval,
    Fan / Tstat_Profile_Profile_1_ClgSp_UnoccupiedAvailable,  !- Name
    Temperature,             !- Schedule Type Limits Name
    No,                      !- Interpolate to Timestep
    06:00,                   !- Time 1
    26.6666666666667,        !- Value Until Time 1
    21:00,                   !- Time 2
    23.8888888888889,        !- Value Until Time 2
    24:00,                   !- Time 3
    26.6666666666667;        !- Value Until Time 3

  Schedule:Day:Interval,
    S04.1 - Dehumid 40% Elec_Thermostat_ClgSp_at_WDD,  !- Name
    Temperature,             !- Schedule Type Limits Name
    No,                      !- Interpolate to Timestep
    24:00,                   !- Time 1
    23.8888888888889;        !- Value Until Time 1

  ZoneControl:Humidistat,
    Zone Control Humidistat 8,  !- Name
    101 - North,             !- Zone Name
    Schedule_SchType_Constant 3,  !- Humidifying Relative Humidity Setpoint Schedule Name
    Schedule_SchType_Constant 4;  !- Dehumidifying Relative Humidity Setpoint Schedule Name

  Schedule:Constant,Schedule_SchType_Constant 3,Percent,0;

  Schedule:Constant,Schedule_SchType_Constant 4,Percent,40.0;

  ZoneHVAC:EquipmentConnections,
    101 - North,             !- Zone Name
    101 - North Equipment List,  !- Zone Conditioning Equipment List Name
    101 - North Inlet Node List,  !- Zone Air Inlet Node or NodeList Name
    ,                        !- Zone Air Exhaust Node or NodeList Name
    Node 39,                 !- Zone Air Node Name
    101 - North Return Node List;  !- Zone Return Air Node or NodeList Name

  NodeList,
    101 - North Inlet Node List,  !- Name
    Node 40;                 !- Node 1 Name

  NodeList,
    101 - North Return Node List,  !- Name
    Node 41;                 !- Node 1 Name

  ZoneHVAC:AirDistributionUnit,
    ADU 101 - North_ZoneSupplyTerminal_VAVReheat,  !- Name
    Node 40,                 !- Air Distribution Unit Outlet Node Name
    AirTerminal:SingleDuct:VAV:Reheat,  !- Air Terminal Object Type
    101 - North_ZoneSupplyTerminal_VAVReheat;  !- Air Terminal Name

  AirTerminal:SingleDuct:VAV:Reheat,
    101 - North_ZoneSupplyTerminal_VAVReheat,  !- Name
    ZoneTerminalReheatCoil_Sch,  !- Availability Schedule Name
    101 - North_ZoneSupplyTerminal_VAVReheat Damper Outlet,  !- Damper Air Outlet Node Name
    Node 42,                 !- Air Inlet Node Name
    0.584284379040527,       !- Maximum Air Flow Rate {m3/s}
    Scheduled,               !- Zone Minimum Air Flow Input Method
    0.3,                     !- Constant Minimum Air Flow Fraction
    0,                       !- Fixed Minimum Air Flow Rate {m3/s}
    101 - North_MinAirFlowFractionSch,  !- Minimum Air Flow Fraction Schedule Name
    Coil:Heating:Electric,   !- Reheat Coil Object Type
    101 - North_SupplyReheat_ElectricCoil,  !- Reheat Coil Name
    0,                       !- Maximum Hot Water or Steam Flow Rate {m3/s}
    0,                       !- Minimum Hot Water or Steam Flow Rate {m3/s}
    Node 40,                 !- Air Outlet Node Name
    0.001,                   !- Convergence Tolerance
    Normal,                  !- Damper Heating Action
    Autocalculate,           !- Maximum Flow per Zone Floor Area During Reheat {m3/s-m2}
    Autocalculate,           !- Maximum Flow Fraction During Reheat
    1500;                    !- Maximum Reheat Air Temperature {C}

  Coil:Heating:Electric,
    101 - North_SupplyReheat_ElectricCoil,  !- Name
    ZoneTerminalReheatCoil_Sch,  !- Availability Schedule Name
    1,                       !- Efficiency
    7643.72702579609,        !- Nominal Capacity {W}
    101 - North_ZoneSupplyTerminal_VAVReheat Damper Outlet,  !- Air Inlet Node Name
    Node 40;                 !- Air Outlet Node Name

  Schedule:Compact,
    ZoneTerminalReheatCoil_Sch,  !- Name
    Binary,                  !- Schedule Type Limits Name
    Through: 12/31,          !- Field 1
    For: AllDays,            !- Field 2
    Until: 24:00,1;          !- Field 3

  ScheduleTypeLimits,
    Binary,                  !- Name
    0,                       !- Lower Limit Value
    1,                       !- Upper Limit Value
    Discrete,                !- Numeric Type
    dimensionless;           !- Unit Type

  Schedule:Year,
    101 - North_MinAirFlowFractionSch,  !- Name
    Fraction,                !- Schedule Type Limits Name
    Schedule_2025797646,     !- Schedule:Week Name 1
    1,                       !- Start Month 1
    1,                       !- Start Day 1
    12,                      !- End Month 1
    31;                      !- End Day 1

  Schedule:Week:Daily,
    Schedule_2025797646,     !- Name
    Schedule141761181_Profile_Profile_48,  !- Sunday Schedule:Day Name
    Schedule141761181_Profile_Profile_47,  !- Monday Schedule:Day Name
    Schedule141761181_Profile_Profile_47,  !- Tuesday Schedule:Day Name
    Schedule141761181_Profile_Profile_47,  !- Wednesday Schedule:Day Name
    Schedule141761181_Profile_Profile_47,  !- Thursday Schedule:Day Name
    Schedule141761181_Profile_Profile_47,  !- Friday Schedule:Day Name
    Schedule141761181_Profile_Profile_48,  !- Saturday Schedule:Day Name
    Schedule141761181_Profile_Profile_48,  !- Holiday Schedule:Day Name
    Schedule141761181_Profile_Profile_46,  !- SummerDesignDay Schedule:Day Name
    Daily_AlwaysOn,          !- WinterDesignDay Schedule:Day Name
    Schedule141761181_Profile_Profile_48,  !- CustomDay1 Schedule:Day Name
    Schedule141761181_Profile_Profile_48;  !- CustomDay2 Schedule:Day Name

  Schedule:Day:Interval,
    Schedule141761181_Profile_Profile_48,  !- Name
    Fraction,                !- Schedule Type Limits Name
    No,                      !- Interpolate to Timestep
    24:00,                   !- Time 1
    0;                       !- Value Until Time 1

  Schedule:Day:Interval,
    Schedule141761181_Profile_Profile_47,  !- Name
    Fraction,                !- Schedule Type Limits Name
    No,                      !- Interpolate to Timestep
    06:00,                   !- Time 1
    0,                       !- Value Until Time 1
    21:00,                   !- Time 2
    0.501772068458591,       !- Value Until Time 2
    24:00,                   !- Time 3
    0;                       !- Value Until Time 3

  Schedule:Day:Interval,
    Schedule141761181_Profile_Profile_46,  !- Name
    Fraction,                !- Schedule Type Limits Name
    No,                      !- Interpolate to Timestep