!-Generator IDFEditor 1.53
!-Option SortedOrder UseSpecialFormat

!-NOTE: All comments with '!-' are ignored by the IDFEditor and are generated automatically.
!-      Use '!' comments if they need to be retained when using the IDFEditor.


!-   ===========  ALL OBJECTS IN CLASS: VERSION ===========

Version,22.2;

!-   ===========  ALL OBJECTS IN CLASS: SIMULATIONCONTROL ===========


SimulationControl,
    No,                      !- Do Zone Sizing Calculation
    No,                      !- Do System Sizing Calculation
    No,                      !- Do Plant Sizing Calculation
    Yes,                     !- Run Simulation for Sizing Periods
    No,                      !- Run Simulation for Weather File Run Periods
    No,                      !- Do HVAC Sizing Simulation for Sizing Periods
    ;                        !- Maximum Number of HVAC Sizing Simulation Passes


!-   ===========  ALL OBJECTS IN CLASS: BUILDING ===========

Building,
    Building 1,              !- Name
    ,                        !- North Axis {deg}
    ,                        !- Terrain
    0.04,                    !- Loads Convergence Tolerance Value {W}
    0.4,                     !- Temperature Convergence Tolerance Value {deltaC}
    FullExterior,            !- Solar Distribution
    25,                      !- Maximum Number of Warmup Days
    6;                       !- Minimum Number of Warmup Days


!-   ===========  ALL OBJECTS IN CLASS: SURFACECONVECTIONALGORITHM:INSIDE ===========

SurfaceConvectionAlgorithm:Inside,CeilingDiffuser;

!-   ===========  ALL OBJECTS IN CLASS: SURFACECONVECTIONALGORITHM:OUTSIDE ===========

SurfaceConvectionAlgorithm:Outside,AdaptiveConvectionAlgorithm;

!-   ===========  ALL OBJECTS IN CLASS: ZONEAIRMASSFLOWCONSERVATION ===========


ZoneAirMassFlowConservation,
    AdjustReturnThenMixing,  !- Adjust Zone Mixing and Return For Air Mass Flow Balance
    AdjustInfiltrationFlow,  !- Infiltration Balancing Method
    AllZones;                !- Infiltration Balancing Zones


!-   ===========  ALL OBJECTS IN CLASS: TIMESTEP ===========

Timestep,6;

!-   ===========  ALL OBJECTS IN CLASS: CONVERGENCELIMITS ===========


ConvergenceLimits,
    10,                      !- Minimum System Timestep {minutes}
    20,                      !- Maximum HVAC Iterations
    2,                       !- Minimum Plant Iterations
    8;                       !- Maximum Plant Iterations


!-   ===========  ALL OBJECTS IN CLASS: SITE:LOCATION ===========

Site:Location,
    Site 1,                  !- Name
    39.7319984436035,        !- Latitude {deg}
    -86.2789993286133,       !- Longitude {deg}
    -5,                      !- Time Zone {hr}
    240.792;                 !- Elevation {m}


!-   ===========  ALL OBJECTS IN CLASS: SIZINGPERIOD:DESIGNDAY ===========

SizingPeriod:DesignDay,
    Sizing Period Design Day 1,  !- Name
    1,                       !- Month
    15,                      !- Day of Month
    WinterDesignDay,         !- Day Type
    -16.3333333863152,       !- Maximum Dry-Bulb Temperature {C}
    0,                       !- Daily Dry-Bulb Temperature Range {deltaC}
    DefaultMultipliers,      !- Dry-Bulb Temperature Range Modifier Type
    ,                        !- Dry-Bulb Temperature Range Modifier Day Schedule Name
    Wetbulb,                 !- Humidity Condition Type
    -17.3048711154196,       !- Wetbulb or DewPoint at Maximum Dry-Bulb {C}
    ,                        !- Humidity Condition Day Schedule Name
    ,                        !- Humidity Ratio at Maximum Dry-Bulb {kgWater/kgDryAir}
    ,                        !- Enthalpy at Maximum Dry-Bulb {J/kg}
    ,                        !- Daily Wet-Bulb Temperature Range {deltaC}
    98465.886488656,         !- Barometric Pressure {Pa}
    18.04,                   !- Wind Speed {m/s}
    0,                       !- Wind Direction {deg}
    No,                      !- Rain Indicator
    No,                      !- Snow Indicator
    No,                      !- Daylight Saving Time Indicator
    ASHRAEClearSky,          !- Solar Model Indicator
    ,                        !- Beam Solar Day Schedule Name
    ,                        !- Diffuse Solar Day Schedule Name
    ,                        !- ASHRAE Clear Sky Optical Depth for Beam Irradiance (taub) {dimensionless}
    ,                        !- ASHRAE Clear Sky Optical Depth for Diffuse Irradiance (taud) {dimensionless}
    0;                       !- Sky Clearness

SizingPeriod:DesignDay,
    Sizing Period Design Day 10,  !- Name
    9,                       !- Month
    21,                      !- Day of Month
    SummerDesignDay,         !- Day Type
    29.7555584377713,        !- Maximum Dry-Bulb Temperature {C}
    ,                        !- Daily Dry-Bulb Temperature Range {deltaC}
    DifferenceSchedule,      !- Dry-Bulb Temperature Range Modifier Type
    Schedule Day 139,        !- Dry-Bulb Temperature Range Modifier Day Schedule Name
    WetBulbProfileDifferenceSchedule,  !- Humidity Condition Type
    22.2256469726562,        !- Wetbulb or DewPoint at Maximum Dry-Bulb {C}
    Schedule Day 140,        !- Humidity Condition Day Schedule Name
    ,                        !- Humidity Ratio at Maximum Dry-Bulb {kgWater/kgDryAir}
    ,                        !- Enthalpy at Maximum Dry-Bulb {J/kg}
    ,                        !- Daily Wet-Bulb Temperature Range {deltaC}
    98465.886488656,         !- Barometric Pressure {Pa}
    9.02,                    !- Wind Speed {m/s}
    0,                       !- Wind Direction {deg}
    No,                      !- Rain Indicator
    No,                      !- Snow Indicator
    Yes,                     !- Daylight Saving Time Indicator
    Schedule,                !- Solar Model Indicator
    Schedule Day 141,        !- Beam Solar Day Schedule Name
    Schedule Day 142;        !- Diffuse Solar Day Schedule Name

SizingPeriod:DesignDay,
    Sizing Period Design Day 11,  !- Name
    10,                      !- Month
    21,                      !- Day of Month
    SummerDesignDay,         !- Day Type
    24.0555572509766,        !- Maximum Dry-Bulb Temperature {C}
    ,                        !- Daily Dry-Bulb Temperature Range {deltaC}
    DifferenceSchedule,      !- Dry-Bulb Temperature Range Modifier Type
    Schedule Day 143,        !- Dry-Bulb Temperature Range Modifier Day Schedule Name
    WetBulbProfileDifferenceSchedule,  !- Humidity Condition Type
    19.4446563720703,        !- Wetbulb or DewPoint at Maximum Dry-Bulb {C}
    Schedule Day 144,        !- Humidity Condition Day Schedule Name
    ,                        !- Humidity Ratio at Maximum Dry-Bulb {kgWater/kgDryAir}
    ,                        !- Enthalpy at Maximum Dry-Bulb {J/kg}
    ,                        !- Daily Wet-Bulb Temperature Range {deltaC}
    98465.886488656,         !- Barometric Pressure {Pa}
    9.02,                    !- Wind Speed {m/s}
    0,                       !- Wind Direction {deg}
    No,                      !- Rain Indicator
    No,                      !- Snow Indicator
    Yes,                     !- Daylight Saving Time Indicator
    Schedule,                !- Solar Model Indicator
    Schedule Day 145,        !- Beam Solar Day Schedule Name
    Schedule Day 146;        !- Diffuse Solar Day Schedule Name

SizingPeriod:DesignDay,
    Sizing Period Design Day 12,  !- Name
    11,                      !- Month
    21,                      !- Day of Month
    SummerDesignDay,         !- Day Type
    18.6444430881076,        !- Maximum Dry-Bulb Temperature {C}
    ,                        !- Daily Dry-Bulb Temperature Range {deltaC}
    DifferenceSchedule,      !- Dry-Bulb Temperature Range Modifier Type
    Schedule Day 147,        !- Dry-Bulb Temperature Range Modifier Day Schedule Name
    WetBulbProfileDifferenceSchedule,  !- Humidity Condition Type
    16.1121537950304,        !- Wetbulb or DewPoint at Maximum Dry-Bulb {C}
    Schedule Day 148,        !- Humidity Condition Day Schedule Name
    ,                        !- Humidity Ratio at Maximum Dry-Bulb {kgWater/kgDryAir}
    ,                        !- Enthalpy at Maximum Dry-Bulb {J/kg}
    ,                        !- Daily Wet-Bulb Temperature Range {deltaC}
    98465.886488656,         !- Barometric Pressure {Pa}
    9.02,                    !- Wind Speed {m/s}
    0,                       !- Wind Direction {deg}
    No,                      !- Rain Indicator
    No,                      !- Snow Indicator
    No,                      !- Daylight Saving Time Indicator
    Schedule,                !- Solar Model Indicator
    Schedule Day 149,        !- Beam Solar Day Schedule Name
    Schedule Day 150;        !- Diffuse Solar Day Schedule Name

SizingPeriod:DesignDay,
    Sizing Period Design Day 13,  !- Name
    12,                      !- Month
    21,                      !- Day of Month
    SummerDesignDay,         !- Day Type
    11.8333350287543,        !- Maximum Dry-Bulb Temperature {C}
    ,                        !- Daily Dry-Bulb Temperature Range {deltaC}
    DifferenceSchedule,      !- Dry-Bulb Temperature Range Modifier Type
    Schedule Day 151,        !- Dry-Bulb Temperature Range Modifier Day Schedule Name
    WetBulbProfileDifferenceSchedule,  !- Humidity Condition Type
    11.1062664455838,        !- Wetbulb or DewPoint at Maximum Dry-Bulb {C}
    Schedule Day 152,        !- Humidity Condition Day Schedule Name
    ,                        !- Humidity Ratio at Maximum Dry-Bulb {kgWater/kgDryAir}
    ,                        !- Enthalpy at Maximum Dry-Bulb {J/kg}
    ,                        !- Daily Wet-Bulb Temperature Range {deltaC}
    98465.886488656,         !- Barometric Pressure {Pa}
    9.02,                    !- Wind Speed {m/s}
    0,                       !- Wind Direction {deg}
    No,                      !- Rain Indicator
    No,                      !- Snow Indicator
    No,                      !- Daylight Saving Time Indicator
    Schedule,                !- Solar Model Indicator
    Schedule Day 153,        !- Beam Solar Day Schedule Name
    Schedule Day 154;        !- Diffuse Solar Day Schedule Name

SizingPeriod:DesignDay,
    Sizing Period Design Day 2,  !- Name
    1,                       !- Month
    21,                      !- Day of Month
    SummerDesignDay,         !- Day Type
    8.6444452073839,         !- Maximum Dry-Bulb Temperature {C}
    ,                        !- Daily Dry-Bulb Temperature Range {deltaC}
    DifferenceSchedule,      !- Dry-Bulb Temperature Range Modifier Type
    Schedule Day 107,        !- Dry-Bulb Temperature Range Modifier Day Schedule Name
    WetBulbProfileDifferenceSchedule,  !- Humidity Condition Type
    8.32916895548503,        !- Wetbulb or DewPoint at Maximum Dry-Bulb {C}
    Schedule Day 108,        !- Humidity Condition Day Schedule Name
    ,                        !- Humidity Ratio at Maximum Dry-Bulb {kgWater/kgDryAir}
    ,                        !- Enthalpy at Maximum Dry-Bulb {J/kg}
    ,                        !- Daily Wet-Bulb Temperature Range {deltaC}
    98465.886488656,         !- Barometric Pressure {Pa}
    9.02,                    !- Wind Speed {m/s}
    0,                       !- Wind Direction {deg}
    No,                      !- Rain Indicator
    No,                      !- Snow Indicator
    No,                      !- Daylight Saving Time Indicator
    Schedule,                !- Solar Model Indicator
    Schedule Day 109,        !- Beam Solar Day Schedule Name
    Schedule Day 110;        !- Diffuse Solar Day Schedule Name

SizingPeriod:DesignDay,
    Sizing Period Design Day 3,  !- Name
    2,                       !- Month
    21,                      !- Day of Month
    SummerDesignDay,         !- Day Type
    10.7222239176432,        !- Maximum Dry-Bulb Temperature {C}
    ,                        !- Daily Dry-Bulb Temperature Range {deltaC}
    DifferenceSchedule,      !- Dry-Bulb Temperature Range Modifier Type
    Schedule Day 111,        !- Dry-Bulb Temperature Range Modifier Day Schedule Name
    WetBulbProfileDifferenceSchedule,  !- Humidity Condition Type
    10.7222239176432,        !- Wetbulb or DewPoint at Maximum Dry-Bulb {C}
    Schedule Day 112,        !- Humidity Condition Day Schedule Name
    ,                        !- Humidity Ratio at Maximum Dry-Bulb {kgWater/kgDryAir}
    ,                        !- Enthalpy at Maximum Dry-Bulb {J/kg}
    ,                        !- Daily Wet-Bulb Temperature Range {deltaC}
    98465.886488656,         !- Barometric Pressure {Pa}
    9.02,                    !- Wind Speed {m/s}
    0,                       !- Wind Direction {deg}
    No,                      !- Rain Indicator
    No,                      !- Snow Indicator
    No,                      !- Daylight Saving Time Indicator
    Schedule,                !- Solar Model Indicator
    Schedule Day 113,        !- Beam Solar Day Schedule Name
    Schedule Day 114;        !- Diffuse Solar Day Schedule Name

SizingPeriod:DesignDay,
    Sizing Period Design Day 4,  !- Name
    3,                       !- Month
    21,                      !- Day of Month
    SummerDesignDay,         !- Day Type
    16.8333350287543,        !- Maximum Dry-Bulb Temperature {C}
    ,                        !- Daily Dry-Bulb Temperature Range {deltaC}
    DifferenceSchedule,      !- Dry-Bulb Temperature Range Modifier Type
    Schedule Day 115,        !- Dry-Bulb Temperature Range Modifier Day Schedule Name
    WetBulbProfileDifferenceSchedule,  !- Humidity Condition Type
    16.1056666904026,        !- Wetbulb or DewPoint at Maximum Dry-Bulb {C}
    Schedule Day 116,        !- Humidity Condition Day Schedule Name
    ,                        !- Humidity Ratio at Maximum Dry-Bulb {kgWater/kgDryAir}
    ,                        !- Enthalpy at Maximum Dry-Bulb {J/kg}
    ,                        !- Daily Wet-Bulb Temperature Range {deltaC}
    98465.886488656,         !- Barometric Pressure {Pa}
    9.02,                    !- Wind Speed {m/s}
    0,                       !- Wind Direction {deg}
    No,                      !- Rain Indicator
    No,                      !- Snow Indicator
    Yes,                     !- Daylight Saving Time Indicator
    Schedule,                !- Solar Model Indicator
    Schedule Day 117,        !- Beam Solar Day Schedule Name
    Schedule Day 118;        !- Diffuse Solar Day Schedule Name

SizingPeriod:DesignDay,
    Sizing Period Design Day 5,  !- Name
    4,                       !- Month
    21,                      !- Day of Month
    SummerDesignDay,         !- Day Type
    22.3888905843099,        !- Maximum Dry-Bulb Temperature {C}
    ,                        !- Daily Dry-Bulb Temperature Range {deltaC}
    DifferenceSchedule,      !- Dry-Bulb Temperature Range Modifier Type
    Schedule Day 119,        !- Dry-Bulb Temperature Range Modifier Day Schedule Name
    WetBulbProfileDifferenceSchedule,  !- Humidity Condition Type
    18.3334223429362,        !- Wetbulb or DewPoint at Maximum Dry-Bulb {C}
    Schedule Day 120,        !- Humidity Condition Day Schedule Name
    ,                        !- Humidity Ratio at Maximum Dry-Bulb {kgWater/kgDryAir}
    ,                        !- Enthalpy at Maximum Dry-Bulb {J/kg}
    ,                        !- Daily Wet-Bulb Temperature Range {deltaC}
    98465.886488656,         !- Barometric Pressure {Pa}
    9.02,                    !- Wind Speed {m/s}
    0,                       !- Wind Direction {deg}
    No,                      !- Rain Indicator
    No,                      !- Snow Indicator
    Yes,                     !- Daylight Saving Time Indicator
    Schedule,                !- Solar Model Indicator
    Schedule Day 121,        !- Beam Solar Day Schedule Name
    Schedule Day 122;        !- Diffuse Solar Day Schedule Name

SizingPeriod:DesignDay,
    Sizing Period Design Day 6,  !- Name
    5,                       !- Month
    21,                      !- Day of Month
    SummerDesignDay,         !- Day Type
    27.533336215549,         !- Maximum Dry-Bulb Temperature {C}
    ,                        !- Daily Dry-Bulb Temperature Range {deltaC}
    DifferenceSchedule,      !- Dry-Bulb Temperature Range Modifier Type
    Schedule Day 123,        !- Dry-Bulb Temperature Range Modifier Day Schedule Name
    WetBulbProfileDifferenceSchedule,  !- Humidity Condition Type
    21.1125564575195,        !- Wetbulb or DewPoint at Maximum Dry-Bulb {C}
    Schedule Day 124,        !- Humidity Condition Day Schedule Name
    ,                        !- Humidity Ratio at Maximum Dry-Bulb {kgWater/kgDryAir}
    ,                        !- Enthalpy at Maximum Dry-Bulb {J/kg}
    ,                        !- Daily Wet-Bulb Temperature Range {deltaC}
    98465.886488656,         !- Barometric Pressure {Pa}
    9.02,                    !- Wind Speed {m/s}
    0,                       !- Wind Direction {deg}
    No,                      !- Rain Indicator
    No,                      !- Snow Indicator
    Yes,                     !- Daylight Saving Time Indicator
    Schedule,                !- Solar Model Indicator
    Schedule Day 125,        !- Beam Solar Day Schedule Name
    Schedule Day 126;        !- Diffuse Solar Day Schedule Name

SizingPeriod:DesignDay,
    Sizing Period Design Day 7,  !- Name
    6,                       !- Month
    21,                      !- Day of Month
    SummerDesignDay,         !- Day Type
    31.2777794731988,        !- Maximum Dry-Bulb Temperature {C}
    ,                        !- Daily Dry-Bulb Temperature Range {deltaC}
    DifferenceSchedule,      !- Dry-Bulb Temperature Range Modifier Type
    Schedule Day 127,        !- Dry-Bulb Temperature Range Modifier Day Schedule Name
    WetBulbProfileDifferenceSchedule,  !- Humidity Condition Type
    22.7841567993164,        !- Wetbulb or DewPoint at Maximum Dry-Bulb {C}
    Schedule Day 128,        !- Humidity Condition Day Schedule Name
    ,                        !- Humidity Ratio at Maximum Dry-Bulb {kgWater/kgDryAir}
    ,                        !- Enthalpy at Maximum Dry-Bulb {J/kg}
    ,                        !- Daily Wet-Bulb Temperature Range {deltaC}
    98465.886488656,         !- Barometric Pressure {Pa}
    9.02,                    !- Wind Speed {m/s}
    0,                       !- Wind Direction {deg}
    No,                      !- Rain Indicator
    No,                      !- Snow Indicator
    Yes,                     !- Daylight Saving Time Indicator
    Schedule,                !- Solar Model Indicator
    Schedule Day 129,        !- Beam Solar Day Schedule Name
    Schedule Day 130;        !- Diffuse Solar Day Schedule Name

SizingPeriod:DesignDay,
    Sizing Period Design Day 8,  !- Name
    7,                       !- Month
    21,                      !- Day of Month
    SummerDesignDay,         !- Day Type
    32.9444461398654,        !- Maximum Dry-Bulb Temperature {C}
    ,                        !- Daily Dry-Bulb Temperature Range {deltaC}
    DifferenceSchedule,      !- Dry-Bulb Temperature Range Modifier Type
    Schedule Day 131,        !- Dry-Bulb Temperature Range Modifier Day Schedule Name
    WetBulbProfileDifferenceSchedule,  !- Humidity Condition Type
    23.8889439900716,        !- Wetbulb or DewPoint at Maximum Dry-Bulb {C}
    Schedule Day 132,        !- Humidity Condition Day Schedule Name
    ,                        !- Humidity Ratio at Maximum Dry-Bulb {kgWater/kgDryAir}
    ,                        !- Enthalpy at Maximum Dry-Bulb {J/kg}
    ,                        !- Daily Wet-Bulb Temperature Range {deltaC}
    98465.886488656,         !- Barometric Pressure {Pa}
    9.02,                    !- Wind Speed {m/s}
    0,                       !- Wind Direction {deg}
    No,                      !- Rain Indicator
    No,                      !- Snow Indicator
    Yes,                     !- Daylight Saving Time Indicator
    Schedule,                !- Solar Model Indicator
    Schedule Day 133,        !- Beam Solar Day Schedule Name
    Schedule Day 134;        !- Diffuse Solar Day Schedule Name

SizingPeriod:DesignDay,
    Sizing Period Design Day 9,  !- Name
    8,                       !- Month
    21,                      !- Day of Month
    SummerDesignDay,         !- Day Type
    32.9444461398654,        !- Maximum Dry-Bulb Temperature {C}
    ,                        !- Daily Dry-Bulb Temperature Range {deltaC}
    DifferenceSchedule,      !- Dry-Bulb Temperature Range Modifier Type
    Schedule Day 135,        !- Dry-Bulb Temperature Range Modifier Day Schedule Name
    WetBulbProfileDifferenceSchedule,  !- Humidity Condition Type
    23.8889439900716,        !- Wetbulb or DewPoint at Maximum Dry-Bulb {C}
    Schedule Day 136,        !- Humidity Condition Day Schedule Name
    ,                        !- Humidity Ratio at Maximum Dry-Bulb {kgWater/kgDryAir}
    ,                        !- Enthalpy at Maximum Dry-Bulb {J/kg}
    ,                        !- Daily Wet-Bulb Temperature Range {deltaC}
    98465.886488656,         !- Barometric Pressure {Pa}
    9.02,                    !- Wind Speed {m/s}
    0,                       !- Wind Direction {deg}
    No,                      !- Rain Indicator
    No,                      !- Snow Indicator
    Yes,                     !- Daylight Saving Time Indicator
    Schedule,                !- Solar Model Indicator
    Schedule Day 137,        !- Beam Solar Day Schedule Name
    Schedule Day 138;        !- Diffuse Solar Day Schedule Name


!-   ===========  ALL OBJECTS IN CLASS: RUNPERIOD ===========

RunPeriod,
    Run Period 1,            !- Name
    1,                       !- Begin Month
    1,                       !- Begin Day of Month
    2009,                    !- Begin Year
    12,                      !- End Month
    31,                      !- End Day of Month
    2009,                    !- End Year
    Thursday,                !- Day of Week for Start Day
    No,                      !- Use Weather File Holidays and Special Days
    No,                      !- Use Weather File Daylight Saving Period
    No,                      !- Apply Weekend Holiday Rule
    Yes,                     !- Use Weather File Rain Indicators
    Yes;                     !- Use Weather File Snow Indicators


!-   ===========  ALL OBJECTS IN CLASS: SITE:GROUNDREFLECTANCE ===========

Site:GroundReflectance,0.200000002980232,0.200000002980232,0.200000002980232,0.200000002980232,0.200000002980232,0.200000002980232,0.200000002980232,0.200000002980232,0.200000002980232,0.200000002980232,0.200000002980232,0.200000002980232;

!-   ===========  ALL OBJECTS IN CLASS: SCHEDULETYPELIMITS ===========


ScheduleTypeLimits,
    Schedule Type Limits 1,  !- Name
    0,                       !- Lower Limit Value
    1,                       !- Upper Limit Value
    Continuous,              !- Numeric Type
    dimensionless;           !- Unit Type

ScheduleTypeLimits,
    Thermal Zone 1 Thermostat Schedule Type Limits,  !- Name
    0,                       !- Lower Limit Value
    4,                       !- Upper Limit Value
    DISCRETE;                !- Numeric Type

ScheduleTypeLimits,
    Schedule Type Limits 4,  !- Name
    -100,                    !- Lower Limit Value
    200,                     !- Upper Limit Value
    Continuous,              !- Numeric Type
    temperature;             !- Unit Type

ScheduleTypeLimits,
    Thermal Zone 2 Thermostat Schedule Type Limits,  !- Name
    0,                       !- Lower Limit Value
    4,                       !- Upper Limit Value
    DISCRETE;                !- Numeric Type

ScheduleTypeLimits,
    ActivityLevel,           !- Name
    0,                       !- Lower Limit Value
    ,                        !- Upper Limit Value
    Continuous,              !- Numeric Type
    activitylevel;           !- Unit Type

ScheduleTypeLimits,
    Schedule Type Limits 2,  !- Name
    0,                       !- Lower Limit Value
    1,                       !- Upper Limit Value
    Discrete,                !- Numeric Type
    dimensionless;           !- Unit Type

ScheduleTypeLimits,
    Schedule Type Limits 3;  !- Name

ScheduleTypeLimits,
    Schedule Type Limits 5,  !- Name
    0,                       !- Lower Limit Value
    4,                       !- Upper Limit Value
    Discrete;                !- Numeric Type


!-   ===========  ALL OBJECTS IN CLASS: SCHEDULE:DAY:INTERVAL ===========

Schedule:Day:Interval,
    Schedule Day 78,         !- Name
    Schedule Type Limits 1,  !- Schedule Type Limits Name
    No,                      !- Interpolate to Timestep
    24:00,                   !- Time 1 {hh:mm}
    0.05;                    !- Value Until Time 1

Schedule:Day:Interval,
    Schedule Day 76,         !- Name
    Schedule Type Limits 1,  !- Schedule Type Limits Name
    No,                      !- Interpolate to Timestep
    05:00,                   !- Time 1 {hh:mm}
    0.05,                    !- Value Until Time 1
    07:00,                   !- Time 2 {hh:mm}
    0.1,                     !- Value Until Time 2
    08:00,                   !- Time 3 {hh:mm}
    0.3,                     !- Value Until Time 3
    12:00,                   !- Time 4 {hh:mm}
    0.9,                     !- Value Until Time 4
    13:00,                   !- Time 5 {hh:mm}
    0.8,                     !- Value Until Time 5
    17:00,                   !- Time 6 {hh:mm}
    0.9,                     !- Value Until Time 6
    18:00,                   !- Time 7 {hh:mm}
    0.5,                     !- Value Until Time 7
    20:00,                   !- Time 8 {hh:mm}
    0.3,                     !- Value Until Time 8
    22:00,                   !- Time 9 {hh:mm}
    0.2,                     !- Value Until Time 9
    23:00,                   !- Time 10 {hh:mm}
    0.1,                     !- Value Until Time 10
    24:00,                   !- Time 11 {hh:mm}
    0.05;                    !- Value Until Time 11

Schedule:Day:Interval,
    Schedule Day 77,         !- Name
    Schedule Type Limits 1,  !- Schedule Type Limits Name
    No,                      !- Interpolate to Timestep
    06:00,                   !- Time 1 {hh:mm}
    0.05,                    !- Value Until Time 1
    08:00,                   !- Time 2 {hh:mm}
    0.1,                     !- Value Until Time 2
    12:00,                   !- Time 3 {hh:mm}
    0.3,                     !- Value Until Time 3
    17:00,                   !- Time 4 {hh:mm}
    0.15,                    !- Value Until Time 4
    24:00,                   !- Time 5 {hh:mm}
    0.05;                    !- Value Until Time 5

Schedule:Day:Interval,
    Schedule Day 75,         !- Name
    Schedule Type Limits 1,  !- Schedule Type Limits Name
    No,                      !- Interpolate to Timestep
    05:00,                   !- Time 1 {hh:mm}
    0.05,                    !- Value Until Time 1
    23:00,                   !- Time 2 {hh:mm}
    1,                       !- Value Until Time 2
    24:00,                   !- Time 3 {hh:mm}
    0.05;                    !- Value Until Time 3

Schedule:Day:Interval,
    Schedule Day 4,          !- Name
    Schedule Type Limits 1,  !- Schedule Type Limits Name
    No,                      !- Interpolate to Timestep
    24:00,                   !- Time 1 {hh:mm}
    0;                       !- Value Until Time 1

Schedule:Day:Interval,
    Schedule Day 29,         !- Name
    Schedule Type Limits 4,  !- Schedule Type Limits Name
    No,                      !- Interpolate to Timestep
    24:00,                   !- Time 1 {hh:mm}
    18.3333333333333;        !- Value Until Time 1

Schedule:Day:Interval,
    Schedule Day 21,         !- Name
    Schedule Type Limits 4,  !- Schedule Type Limits Name
    No,                      !- Interpolate to Timestep
    06:00,                   !- Time 1 {hh:mm}
    18.3333333333333,        !- Value Until Time 1
    22:00,                   !- Time 2 {hh:mm}
    21.1111111111111,        !- Value Until Time 2
    24:00,                   !- Time 3 {hh:mm}
    18.3333333333333;        !- Value Until Time 3

Schedule:Day:Interval,
    Schedule Day 25,         !- Name
    Schedule Type Limits 4,  !- Schedule Type Limits Name
    No,                      !- Interpolate to Timestep
    06:00,                   !- Time 1 {hh:mm}
    18.3333333333333,        !- Value Until Time 1
    18:00,                   !- Time 2 {hh:mm}
    21.1111111111111,        !- Value Until Time 2
    24:00,                   !- Time 3 {hh:mm}
    18.3333333333333;        !- Value Until Time 3

Schedule:Day:Interval,
    Schedule Day 32,         !- Name
    Schedule Type Limits 4,  !- Schedule Type Limits Name
    No,                      !- Interpolate to Timestep
    24:00,                   !- Time 1 {hh:mm}
    21.1111111111111;        !- Value Until Time 1

Schedule:Day:Interval,
    Schedule Day 16,         !- Name
    Schedule Type Limits 4,  !- Schedule Type Limits Name
    No,                      !- Interpolate to Timestep
    24:00,                   !- Time 1 {hh:mm}
    26.6666666666667;        !- Value Until Time 1

Schedule:Day:Interval,
    Schedule Day 8,          !- Name
    Schedule Type Limits 4,  !- Schedule Type Limits Name
    No,                      !- Interpolate to Timestep