!-Generator IDFEditor 1.53
!-Option SortedOrder

!-NOTE: All comments with '!-' are ignored by the IDFEditor and are generated automatically.
!-      Use '!' comments if they need to be retained when using the IDFEditor.


!-   ===========  ALL OBJECTS IN CLASS: VERSION ===========

Version,
    23.1;                    !- Version Identifier


!-   ===========  ALL OBJECTS IN CLASS: SIMULATIONCONTROL ===========

SimulationControl,
    Yes,                     !- Do Zone Sizing Calculation
    Yes,                     !- Do System Sizing Calculation
    No,                      !- Do Plant Sizing Calculation
    Yes,                     !- Run Simulation for Sizing Periods
    No,                      !- Run Simulation for Weather File Run Periods
    ,                        !- Do HVAC Sizing Simulation for Sizing Periods
    ;                        !- Maximum Number of HVAC Sizing Simulation Passes


!-   ===========  ALL OBJECTS IN CLASS: BUILDING ===========

Building,
    SubjectBuilding_{00211}, !- Name
    ,                        !- North Axis {deg}
    ,                        !- Terrain
    ,                        !- Loads Convergence Tolerance Value {W}
    ,                        !- Temperature Convergence Tolerance Value {deltaC}
    ,                        !- Solar Distribution
    ,                        !- Maximum Number of Warmup Days
    ;                        !- Minimum Number of Warmup Days


!-   ===========  ALL OBJECTS IN CLASS: SURFACECONVECTIONALGORITHM:INSIDE ===========

SurfaceConvectionAlgorithm:Inside,
    CeilingDiffuser;         !- Algorithm


!-   ===========  ALL OBJECTS IN CLASS: SURFACECONVECTIONALGORITHM:OUTSIDE ===========

SurfaceConvectionAlgorithm:Outside,
    AdaptiveConvectionAlgorithm;  !- Algorithm


!-   ===========  ALL OBJECTS IN CLASS: ZONEAIRCONTAMINANTBALANCE ===========

ZoneAirContaminantBalance,
    Yes,                     !- Carbon Dioxide Concentration
    Outdoor Air CO2 Concentration_{03746};  !- Outdoor Carbon Dioxide Schedule Name


!-   ===========  ALL OBJECTS IN CLASS: ZONEAIRMASSFLOWCONSERVATION ===========

ZoneAirMassFlowConservation,
    AdjustReturnThenMixing,  !- Adjust Zone Mixing and Return For Air Mass Flow Balance
    AdjustInfiltrationFlow,  !- Infiltration Balancing Method
    AllZones;                !- Infiltration Balancing Zones


!-   ===========  ALL OBJECTS IN CLASS: TIMESTEP ===========

Timestep,
    6;                       !- Number of Timesteps per Hour


!-   ===========  ALL OBJECTS IN CLASS: CONVERGENCELIMITS ===========

ConvergenceLimits,
    10,                      !- Minimum System Timestep {minutes}
    20,                      !- Maximum HVAC Iterations
    2,                       !- Minimum Plant Iterations
    8;                       !- Maximum Plant Iterations


!-   ===========  ALL OBJECTS IN CLASS: SITE:LOCATION ===========

Site:Location,
    Atlanta Hartsfield-Jackson_ GA_ USA_Site_{03747},  !- Name
    33.6399993896484,        !- Latitude {deg}
    -84.4300003051758,       !- Longitude {deg}
    -5,                      !- Time Zone {hr}
    313.0296;                !- Elevation {m}


!-   ===========  ALL OBJECTS IN CLASS: SIZINGPERIOD:DESIGNDAY ===========

SizingPeriod:DesignDay,
    00:HDD_Atlanta Hartsfield-Jackson_ GA_ USA_{03748},  !- Name
    1,                       !- Month
    15,                      !- Day of Month
    WinterDesignDay,         !- Day Type
    -5.61111132303874,       !- Maximum Dry-Bulb Temperature {C}
    0,                       !- Daily Dry-Bulb Temperature Range {deltaC}
    DefaultMultipliers,      !- Dry-Bulb Temperature Range Modifier Type
    ,                        !- Dry-Bulb Temperature Range Modifier Day Schedule Name
    Wetbulb,                 !- Humidity Condition Type
    -7.67363866170247,       !- Wetbulb or DewPoint at Maximum Dry-Bulb {C}
    ,                        !- Humidity Condition Day Schedule Name
    ,                        !- Humidity Ratio at Maximum Dry-Bulb {kgWater/kgDryAir}
    ,                        !- Enthalpy at Maximum Dry-Bulb {J/kg}
    ,                        !- Daily Wet-Bulb Temperature Range {deltaC}
    97620.9142186041,        !- Barometric Pressure {Pa}
    18.04,                   !- Wind Speed {m/s}
    0,                       !- Wind Direction {deg}
    No,                      !- Rain Indicator
    No,                      !- Snow Indicator
    No,                      !- Daylight Saving Time Indicator
    ASHRAEClearSky,          !- Solar Model Indicator
    ,                        !- Beam Solar Day Schedule Name
    ,                        !- Diffuse Solar Day Schedule Name
    ,                        !- ASHRAE Clear Sky Optical Depth for Beam Irradiance (taub) {dimensionless}
    ,                        !- ASHRAE Clear Sky Optical Depth for Diffuse Irradiance (taud) {dimensionless}
    0;                       !- Sky Clearness

SizingPeriod:DesignDay,
    01:CDD_Atlanta Hartsfield-Jackson_ GA_ USA_January_{03753},  !- Name
    1,                       !- Month
    21,                      !- Day of Month
    SummerDesignDay,         !- Day Type
    21.9888899061415,        !- Maximum Dry-Bulb Temperature {C}
    ,                        !- Daily Dry-Bulb Temperature Range {deltaC}
    DifferenceSchedule,      !- Dry-Bulb Temperature Range Modifier Type
    DrybulbTemperatureScheduleDayForDesignWeather_January_{03749},  !- Dry-Bulb Temperature Range Modifier Day Schedule Name
    WetBulbProfileDifferenceSchedule,  !- Humidity Condition Type
    16.0785399542915,        !- Wetbulb or DewPoint at Maximum Dry-Bulb {C}
    WetbulbTemperatureScheduleDayForDesignWeather_January_{03750},  !- Humidity Condition Day Schedule Name
    ,                        !- Humidity Ratio at Maximum Dry-Bulb {kgWater/kgDryAir}
    ,                        !- Enthalpy at Maximum Dry-Bulb {J/kg}
    ,                        !- Daily Wet-Bulb Temperature Range {deltaC}
    97620.9142186041,        !- Barometric Pressure {Pa}
    9.02,                    !- Wind Speed {m/s}
    0,                       !- Wind Direction {deg}
    No,                      !- Rain Indicator
    No,                      !- Snow Indicator
    No,                      !- Daylight Saving Time Indicator
    Schedule,                !- Solar Model Indicator
    BeamRadiationScheduleDayForDesignWeather_January_{03751},  !- Beam Solar Day Schedule Name
    DiffuseRadiationScheduleDayForDesignWeather_January_{03752};  !- Diffuse Solar Day Schedule Name

SizingPeriod:DesignDay,
    02:CDD_Atlanta Hartsfield-Jackson_ GA_ USA_February_{03758},  !- Name
    2,                       !- Month
    21,                      !- Day of Month
    SummerDesignDay,         !- Day Type
    23.6555565728082,        !- Maximum Dry-Bulb Temperature {C}
    ,                        !- Daily Dry-Bulb Temperature Range {deltaC}
    DifferenceSchedule,      !- Dry-Bulb Temperature Range Modifier Type
    DrybulbTemperatureScheduleDayForDesignWeather_February_{03754},  !- Dry-Bulb Temperature Range Modifier Day Schedule Name
    WetBulbProfileDifferenceSchedule,  !- Humidity Condition Type
    17.4232991536458,        !- Wetbulb or DewPoint at Maximum Dry-Bulb {C}
    WetbulbTemperatureScheduleDayForDesignWeather_February_{03755},  !- Humidity Condition Day Schedule Name
    ,                        !- Humidity Ratio at Maximum Dry-Bulb {kgWater/kgDryAir}
    ,                        !- Enthalpy at Maximum Dry-Bulb {J/kg}
    ,                        !- Daily Wet-Bulb Temperature Range {deltaC}
    97620.9142186041,        !- Barometric Pressure {Pa}
    9.02,                    !- Wind Speed {m/s}
    0,                       !- Wind Direction {deg}
    No,                      !- Rain Indicator
    No,                      !- Snow Indicator
    No,                      !- Daylight Saving Time Indicator
    Schedule,                !- Solar Model Indicator
    BeamRadiationScheduleDayForDesignWeather_February_{03756},  !- Beam Solar Day Schedule Name
    DiffuseRadiationScheduleDayForDesignWeather_February_{03757};  !- Diffuse Solar Day Schedule Name

SizingPeriod:DesignDay,
    03:CDD_Atlanta Hartsfield-Jackson_ GA_ USA_March_{03763},  !- Name
    3,                       !- Month
    21,                      !- Day of Month
    SummerDesignDay,         !- Day Type
    26.9888899061415,        !- Maximum Dry-Bulb Temperature {C}
    ,                        !- Daily Dry-Bulb Temperature Range {deltaC}
    DifferenceSchedule,      !- Dry-Bulb Temperature Range Modifier Type
    DrybulbTemperatureScheduleDayForDesignWeather_March_{03759},  !- Dry-Bulb Temperature Range Modifier Day Schedule Name
    WetBulbProfileDifferenceSchedule,  !- Humidity Condition Type
    19.8801506890191,        !- Wetbulb or DewPoint at Maximum Dry-Bulb {C}
    WetbulbTemperatureScheduleDayForDesignWeather_March_{03760},  !- Humidity Condition Day Schedule Name
    ,                        !- Humidity Ratio at Maximum Dry-Bulb {kgWater/kgDryAir}
    ,                        !- Enthalpy at Maximum Dry-Bulb {J/kg}
    ,                        !- Daily Wet-Bulb Temperature Range {deltaC}
    97620.9142186041,        !- Barometric Pressure {Pa}
    9.02,                    !- Wind Speed {m/s}
    0,                       !- Wind Direction {deg}
    No,                      !- Rain Indicator
    No,                      !- Snow Indicator
    Yes,                     !- Daylight Saving Time Indicator
    Schedule,                !- Solar Model Indicator
    BeamRadiationScheduleDayForDesignWeather_March_{03761},  !- Beam Solar Day Schedule Name
    DiffuseRadiationScheduleDayForDesignWeather_March_{03762};  !- Diffuse Solar Day Schedule Name

SizingPeriod:DesignDay,
    04:CDD_Atlanta Hartsfield-Jackson_ GA_ USA_April_{03768},  !- Name
    4,                       !- Month
    21,                      !- Day of Month
    SummerDesignDay,         !- Day Type
    29.4444444444444,        !- Maximum Dry-Bulb Temperature {C}
    ,                        !- Daily Dry-Bulb Temperature Range {deltaC}
    DifferenceSchedule,      !- Dry-Bulb Temperature Range Modifier Type
    DrybulbTemperatureScheduleDayForDesignWeather_April_{03764},  !- Dry-Bulb Temperature Range Modifier Day Schedule Name
    WetBulbProfileDifferenceSchedule,  !- Humidity Condition Type
    20.9948052300347,        !- Wetbulb or DewPoint at Maximum Dry-Bulb {C}
    WetbulbTemperatureScheduleDayForDesignWeather_April_{03765},  !- Humidity Condition Day Schedule Name
    ,                        !- Humidity Ratio at Maximum Dry-Bulb {kgWater/kgDryAir}
    ,                        !- Enthalpy at Maximum Dry-Bulb {J/kg}
    ,                        !- Daily Wet-Bulb Temperature Range {deltaC}
    97620.9142186041,        !- Barometric Pressure {Pa}
    9.02,                    !- Wind Speed {m/s}
    0,                       !- Wind Direction {deg}
    No,                      !- Rain Indicator
    No,                      !- Snow Indicator
    Yes,                     !- Daylight Saving Time Indicator
    Schedule,                !- Solar Model Indicator
    BeamRadiationScheduleDayForDesignWeather_April_{03766},  !- Beam Solar Day Schedule Name
    DiffuseRadiationScheduleDayForDesignWeather_April_{03767};  !- Diffuse Solar Day Schedule Name

SizingPeriod:DesignDay,
    05:CDD_Atlanta Hartsfield-Jackson_ GA_ USA_May_{03773},  !- Name
    5,                       !- Month
    21,                      !- Day of Month
    SummerDesignDay,         !- Day Type
    32.2222222222222,        !- Maximum Dry-Bulb Temperature {C}
    ,                        !- Daily Dry-Bulb Temperature Range {deltaC}
    DifferenceSchedule,      !- Dry-Bulb Temperature Range Modifier Type
    DrybulbTemperatureScheduleDayForDesignWeather_May_{03769},  !- Dry-Bulb Temperature Range Modifier Day Schedule Name
    WetBulbProfileDifferenceSchedule,  !- Humidity Condition Type
    22.3334376017253,        !- Wetbulb or DewPoint at Maximum Dry-Bulb {C}
    WetbulbTemperatureScheduleDayForDesignWeather_May_{03770},  !- Humidity Condition Day Schedule Name
    ,                        !- Humidity Ratio at Maximum Dry-Bulb {kgWater/kgDryAir}
    ,                        !- Enthalpy at Maximum Dry-Bulb {J/kg}
    ,                        !- Daily Wet-Bulb Temperature Range {deltaC}
    97620.9142186041,        !- Barometric Pressure {Pa}
    9.02,                    !- Wind Speed {m/s}
    0,                       !- Wind Direction {deg}
    No,                      !- Rain Indicator
    No,                      !- Snow Indicator
    Yes,                     !- Daylight Saving Time Indicator
    Schedule,                !- Solar Model Indicator
    BeamRadiationScheduleDayForDesignWeather_May_{03771},  !- Beam Solar Day Schedule Name
    DiffuseRadiationScheduleDayForDesignWeather_May_{03772};  !- Diffuse Solar Day Schedule Name

SizingPeriod:DesignDay,
    06:CDD_Atlanta Hartsfield-Jackson_ GA_ USA_June_{03778},  !- Name
    6,                       !- Month
    21,                      !- Day of Month
    SummerDesignDay,         !- Day Type
    33.8888888888889,        !- Maximum Dry-Bulb Temperature {C}
    ,                        !- Daily Dry-Bulb Temperature Range {deltaC}
    DifferenceSchedule,      !- Dry-Bulb Temperature Range Modifier Type
    DrybulbTemperatureScheduleDayForDesignWeather_June_{03774},  !- Dry-Bulb Temperature Range Modifier Day Schedule Name
    WetBulbProfileDifferenceSchedule,  !- Humidity Condition Type
    23.4446122911241,        !- Wetbulb or DewPoint at Maximum Dry-Bulb {C}
    WetbulbTemperatureScheduleDayForDesignWeather_June_{03775},  !- Humidity Condition Day Schedule Name
    ,                        !- Humidity Ratio at Maximum Dry-Bulb {kgWater/kgDryAir}
    ,                        !- Enthalpy at Maximum Dry-Bulb {J/kg}
    ,                        !- Daily Wet-Bulb Temperature Range {deltaC}
    97620.9142186041,        !- Barometric Pressure {Pa}
    9.02,                    !- Wind Speed {m/s}
    0,                       !- Wind Direction {deg}
    No,                      !- Rain Indicator
    No,                      !- Snow Indicator
    Yes,                     !- Daylight Saving Time Indicator
    Schedule,                !- Solar Model Indicator
    BeamRadiationScheduleDayForDesignWeather_June_{03776},  !- Beam Solar Day Schedule Name
    DiffuseRadiationScheduleDayForDesignWeather_June_{03777};  !- Diffuse Solar Day Schedule Name

SizingPeriod:DesignDay,
    07:CDD_Atlanta Hartsfield-Jackson_ GA_ USA_July_{03783},  !- Name
    7,                       !- Month
    21,                      !- Day of Month
    SummerDesignDay,         !- Day Type
    34.4444444444444,        !- Maximum Dry-Bulb Temperature {C}
    ,                        !- Daily Dry-Bulb Temperature Range {deltaC}
    DifferenceSchedule,      !- Dry-Bulb Temperature Range Modifier Type
    DrybulbTemperatureScheduleDayForDesignWeather_July_{03779},  !- Dry-Bulb Temperature Range Modifier Day Schedule Name
    WetBulbProfileDifferenceSchedule,  !- Humidity Condition Type
    23.444692823622,         !- Wetbulb or DewPoint at Maximum Dry-Bulb {C}
    WetbulbTemperatureScheduleDayForDesignWeather_July_{03780},  !- Humidity Condition Day Schedule Name
    ,                        !- Humidity Ratio at Maximum Dry-Bulb {kgWater/kgDryAir}
    ,                        !- Enthalpy at Maximum Dry-Bulb {J/kg}
    ,                        !- Daily Wet-Bulb Temperature Range {deltaC}
    97620.9142186041,        !- Barometric Pressure {Pa}
    9.02,                    !- Wind Speed {m/s}
    0,                       !- Wind Direction {deg}
    No,                      !- Rain Indicator
    No,                      !- Snow Indicator
    Yes,                     !- Daylight Saving Time Indicator
    Schedule,                !- Solar Model Indicator
    BeamRadiationScheduleDayForDesignWeather_July_{03781},  !- Beam Solar Day Schedule Name
    DiffuseRadiationScheduleDayForDesignWeather_July_{03782};  !- Diffuse Solar Day Schedule Name

SizingPeriod:DesignDay,
    08:CDD_Atlanta Hartsfield-Jackson_ GA_ USA_August_{03788},  !- Name
    8,                       !- Month
    21,                      !- Day of Month
    SummerDesignDay,         !- Day Type
    34.4444444444444,        !- Maximum Dry-Bulb Temperature {C}
    ,                        !- Daily Dry-Bulb Temperature Range {deltaC}
    DifferenceSchedule,      !- Dry-Bulb Temperature Range Modifier Type
    DrybulbTemperatureScheduleDayForDesignWeather_August_{03784},  !- Dry-Bulb Temperature Range Modifier Day Schedule Name
    WetBulbProfileDifferenceSchedule,  !- Humidity Condition Type
    23.444692823622,         !- Wetbulb or DewPoint at Maximum Dry-Bulb {C}
    WetbulbTemperatureScheduleDayForDesignWeather_August_{03785},  !- Humidity Condition Day Schedule Name
    ,                        !- Humidity Ratio at Maximum Dry-Bulb {kgWater/kgDryAir}
    ,                        !- Enthalpy at Maximum Dry-Bulb {J/kg}
    ,                        !- Daily Wet-Bulb Temperature Range {deltaC}
    97620.9142186041,        !- Barometric Pressure {Pa}
    9.02,                    !- Wind Speed {m/s}
    0,                       !- Wind Direction {deg}
    No,                      !- Rain Indicator
    No,                      !- Snow Indicator
    Yes,                     !- Daylight Saving Time Indicator
    Schedule,                !- Solar Model Indicator
    BeamRadiationScheduleDayForDesignWeather_August_{03786},  !- Beam Solar Day Schedule Name
    DiffuseRadiationScheduleDayForDesignWeather_August_{03787};  !- Diffuse Solar Day Schedule Name

SizingPeriod:DesignDay,
    09:CDD_Atlanta Hartsfield-Jackson_ GA_ USA_September_{03793},  !- Name
    9,                       !- Month
    21,                      !- Day of Month
    SummerDesignDay,         !- Day Type
    33.1000010172526,        !- Maximum Dry-Bulb Temperature {C}
    ,                        !- Daily Dry-Bulb Temperature Range {deltaC}
    DifferenceSchedule,      !- Dry-Bulb Temperature Range Modifier Type
    DrybulbTemperatureScheduleDayForDesignWeather_September_{03789},  !- Dry-Bulb Temperature Range Modifier Day Schedule Name
    WetBulbProfileDifferenceSchedule,  !- Humidity Condition Type
    22.6557159423828,        !- Wetbulb or DewPoint at Maximum Dry-Bulb {C}
    WetbulbTemperatureScheduleDayForDesignWeather_September_{03790},  !- Humidity Condition Day Schedule Name
    ,                        !- Humidity Ratio at Maximum Dry-Bulb {kgWater/kgDryAir}
    ,                        !- Enthalpy at Maximum Dry-Bulb {J/kg}
    ,                        !- Daily Wet-Bulb Temperature Range {deltaC}
    97620.9142186041,        !- Barometric Pressure {Pa}
    9.02,                    !- Wind Speed {m/s}
    0,                       !- Wind Direction {deg}
    No,                      !- Rain Indicator
    No,                      !- Snow Indicator
    Yes,                     !- Daylight Saving Time Indicator
    Schedule,                !- Solar Model Indicator
    BeamRadiationScheduleDayForDesignWeather_September_{03791},  !- Beam Solar Day Schedule Name
    DiffuseRadiationScheduleDayForDesignWeather_September_{03792};  !- Diffuse Solar Day Schedule Name

SizingPeriod:DesignDay,
    10:CDD_Atlanta Hartsfield-Jackson_ GA_ USA_October_{03798},  !- Name
    10,                      !- Month
    21,                      !- Day of Month
    SummerDesignDay,         !- Day Type
    30.5555555555556,        !- Maximum Dry-Bulb Temperature {C}
    ,                        !- Daily Dry-Bulb Temperature Range {deltaC}
    DifferenceSchedule,      !- Dry-Bulb Temperature Range Modifier Type
    DrybulbTemperatureScheduleDayForDesignWeather_October_{03794},  !- Dry-Bulb Temperature Range Modifier Day Schedule Name
    WetBulbProfileDifferenceSchedule,  !- Humidity Condition Type
    21.222284105089,         !- Wetbulb or DewPoint at Maximum Dry-Bulb {C}
    WetbulbTemperatureScheduleDayForDesignWeather_October_{03795},  !- Humidity Condition Day Schedule Name
    ,                        !- Humidity Ratio at Maximum Dry-Bulb {kgWater/kgDryAir}
    ,                        !- Enthalpy at Maximum Dry-Bulb {J/kg}
    ,                        !- Daily Wet-Bulb Temperature Range {deltaC}
    97620.9142186041,        !- Barometric Pressure {Pa}
    9.02,                    !- Wind Speed {m/s}
    0,                       !- Wind Direction {deg}
    No,                      !- Rain Indicator
    No,                      !- Snow Indicator
    Yes,                     !- Daylight Saving Time Indicator
    Schedule,                !- Solar Model Indicator
    BeamRadiationScheduleDayForDesignWeather_October_{03796},  !- Beam Solar Day Schedule Name
    DiffuseRadiationScheduleDayForDesignWeather_October_{03797};  !- Diffuse Solar Day Schedule Name

SizingPeriod:DesignDay,
    11:CDD_Atlanta Hartsfield-Jackson_ GA_ USA_November_{03803},  !- Name
    11,                      !- Month
    21,                      !- Day of Month
    SummerDesignDay,         !- Day Type
    26.4333343505859,        !- Maximum Dry-Bulb Temperature {C}
    ,                        !- Daily Dry-Bulb Temperature Range {deltaC}
    DifferenceSchedule,      !- Dry-Bulb Temperature Range Modifier Type
    DrybulbTemperatureScheduleDayForDesignWeather_November_{03799},  !- Dry-Bulb Temperature Range Modifier Day Schedule Name
    WetBulbProfileDifferenceSchedule,  !- Humidity Condition Type
    19.6462970309787,        !- Wetbulb or DewPoint at Maximum Dry-Bulb {C}
    WetbulbTemperatureScheduleDayForDesignWeather_November_{03800},  !- Humidity Condition Day Schedule Name
    ,                        !- Humidity Ratio at Maximum Dry-Bulb {kgWater/kgDryAir}
    ,                        !- Enthalpy at Maximum Dry-Bulb {J/kg}
    ,                        !- Daily Wet-Bulb Temperature Range {deltaC}
    97620.9142186041,        !- Barometric Pressure {Pa}
    9.02,                    !- Wind Speed {m/s}
    0,                       !- Wind Direction {deg}
    No,                      !- Rain Indicator
    No,                      !- Snow Indicator
    No,                      !- Daylight Saving Time Indicator
    Schedule,                !- Solar Model Indicator
    BeamRadiationScheduleDayForDesignWeather_November_{03801},  !- Beam Solar Day Schedule Name
    DiffuseRadiationScheduleDayForDesignWeather_November_{03802};  !- Diffuse Solar Day Schedule Name

SizingPeriod:DesignDay,
    12:CDD_Atlanta Hartsfield-Jackson_ GA_ USA_December_{03808},  !- Name
    12,                      !- Month
    21,                      !- Day of Month
    SummerDesignDay,         !- Day Type
    23.1000010172526,        !- Maximum Dry-Bulb Temperature {C}
    ,                        !- Daily Dry-Bulb Temperature Range {deltaC}
    DifferenceSchedule,      !- Dry-Bulb Temperature Range Modifier Type
    DrybulbTemperatureScheduleDayForDesignWeather_December_{03804},  !- Dry-Bulb Temperature Range Modifier Day Schedule Name
    WetBulbProfileDifferenceSchedule,  !- Humidity Condition Type
    17.1896913316515,        !- Wetbulb or DewPoint at Maximum Dry-Bulb {C}
    WetbulbTemperatureScheduleDayForDesignWeather_December_{03805},  !- Humidity Condition Day Schedule Name
    ,                        !- Humidity Ratio at Maximum Dry-Bulb {kgWater/kgDryAir}
    ,                        !- Enthalpy at Maximum Dry-Bulb {J/kg}
    ,                        !- Daily Wet-Bulb Temperature Range {deltaC}
    97620.9142186041,        !- Barometric Pressure {Pa}
    9.02,                    !- Wind Speed {m/s}
    0,                       !- Wind Direction {deg}
    No,                      !- Rain Indicator
    No,                      !- Snow Indicator
    No,                      !- Daylight Saving Time Indicator
    Schedule,                !- Solar Model Indicator
    BeamRadiationScheduleDayForDesignWeather_December_{03806},  !- Beam Solar Day Schedule Name
    DiffuseRadiationScheduleDayForDesignWeather_December_{03807};  !- Diffuse Solar Day Schedule Name


!-   ===========  ALL OBJECTS IN CLASS: RUNPERIOD ===========

RunPeriod,
    Run Period 1,            !- Name
    1,                       !- Begin Month
    1,                       !- Begin Day of Month
    2009,                    !- Begin Year
    12,                      !- End Month
    31,                      !- End Day of Month
    2009,                    !- End Year
    Thursday,                !- Day of Week for Start Day
    No,                      !- Use Weather File Holidays and Special Days
    No,                      !- Use Weather File Daylight Saving Period
    No,                      !- Apply Weekend Holiday Rule
    Yes,                     !- Use Weather File Rain Indicators
    Yes;                     !- Use Weather File Snow Indicators


!-   ===========  ALL OBJECTS IN CLASS: SITE:GROUNDREFLECTANCE ===========

Site:GroundReflectance,
    0.200000002980232,       !- January Ground Reflectance {dimensionless}
    0.200000002980232,       !- February Ground Reflectance {dimensionless}
    0.200000002980232,       !- March Ground Reflectance {dimensionless}
    0.200000002980232,       !- April Ground Reflectance {dimensionless}
    0.200000002980232,       !- May Ground Reflectance {dimensionless}
    0.200000002980232,       !- June Ground Reflectance {dimensionless}
    0.200000002980232,       !- July Ground Reflectance {dimensionless}
    0.200000002980232,       !- August Ground Reflectance {dimensionless}
    0.200000002980232,       !- September Ground Reflectance {dimensionless}
    0.200000002980232,       !- October Ground Reflectance {dimensionless}
    0.200000002980232,       !- November Ground Reflectance {dimensionless}
    0.200000002980232;       !- December Ground Reflectance {dimensionless}


!-   ===========  ALL OBJECTS IN CLASS: SCHEDULETYPELIMITS ===========

ScheduleTypeLimits,
    Fraction,                !- Name
    0,                       !- Lower Limit Value
    1,                       !- Upper Limit Value
    Continuous,              !- Numeric Type
    dimensionless;           !- Unit Type

ScheduleTypeLimits,
    L2 Fitness_{03838} Thermostat Schedule Type Limits,  !- Name
    0,                       !- Lower Limit Value
    4,                       !- Upper Limit Value
    DISCRETE;                !- Numeric Type

ScheduleTypeLimits,
    Temperature,             !- Name
    -100,                    !- Lower Limit Value
    200,                     !- Upper Limit Value
    Continuous,              !- Numeric Type
    temperature;             !- Unit Type

ScheduleTypeLimits,
    ActivityLevel,           !- Name
    0,                       !- Lower Limit Value
    ,                        !- Upper Limit Value
    Continuous,              !- Numeric Type
    activitylevel;           !- Unit Type

ScheduleTypeLimits,
    AnyNumber;               !- Name

ScheduleTypeLimits,
    Binary,                  !- Name
    0,                       !- Lower Limit Value
    1,                       !- Upper Limit Value
    Discrete,                !- Numeric Type
    dimensionless;           !- Unit Type

ScheduleTypeLimits,
    Control Type,            !- Name
    0,                       !- Lower Limit Value
    4,                       !- Upper Limit Value
    Discrete;                !- Numeric Type

ScheduleTypeLimits,
    Dimensionless,           !- Name
    0,                       !- Lower Limit Value
    ,                        !- Upper Limit Value
    Continuous;              !- Numeric Type

ScheduleTypeLimits,
    Fractional,              !- Name
    0,                       !- Lower Limit Value
    1,                       !- Upper Limit Value
    Continuous;              !- Numeric Type

ScheduleTypeLimits,
    OnOff,                   !- Name
    0,                       !- Lower Limit Value
    1,                       !- Upper Limit Value
    Discrete,                !- Numeric Type
    availability;            !- Unit Type

ScheduleTypeLimits,
    OnOff 1,                 !- Name
    0,                       !- Lower Limit Value
    1,                       !- Upper Limit Value
    Discrete,                !- Numeric Type
    availability;            !- Unit Type

ScheduleTypeLimits,
    Percent,                 !- Name
    0,                       !- Lower Limit Value
    100,                     !- Upper Limit Value
    Continuous,              !- Numeric Type
    percent;                 !- Unit Type


!-   ===========  ALL OBJECTS IN CLASS: SCHEDULE:DAY:INTERVAL ===========

Schedule:Day:Interval,
    Schedule95478333_Profile_Profile_4_{00120},  !- Name
    Fraction,                !- Schedule Type Limits Name
    No,                      !- Interpolate to Timestep
    07:00,                   !- Time 1 {hh:mm}
    0.05,                    !- Value Until Time 1
    12:00,                   !- Time 2 {hh:mm}
    0.3,                     !- Value Until Time 2
    22:00,                   !- Time 3 {hh:mm}
    0.65,                    !- Value Until Time 3
    24:00,                   !- Time 4 {hh:mm}
    0.05;                    !- Value Until Time 4

Schedule:Day:Interval,
    Schedule95478333_Profile_Profile_2_{00118},  !- Name
    Fraction,                !- Schedule Type Limits Name
    No,                      !- Interpolate to Timestep