
OS:Version,
  {30408e2d-e398-48bb-8c6d-5dcf9ceeeecb}, !- Handle
  3.0.1;                                  !- Version Identifier

OS:Timestep,
  {9c1a35ff-fb98-4f5e-913f-f88c4f05ef27}, !- Handle
  6;                                      !- Number of Timesteps per Hour

OS:ConvergenceLimits,
  {9773e262-741d-4917-b7b1-400ced60565c}, !- Handle
  10,                                     !- Minimum System Timestep {minutes}
  20,                                     !- Maximum HVAC Iterations
  2,                                      !- Minimum Plant Iterations
  8;                                      !- Maximum Plant Iterations

OS:SurfaceConvectionAlgorithm:Inside,
  {1d28217a-ae86-41df-8ccd-4e70257c34f3}, !- Handle
  CeilingDiffuser;                        !- Algorithm

OS:SurfaceConvectionAlgorithm:Outside,
  {cd51d1fa-f4b0-4be3-bf07-0cae6505786d}, !- Handle
  AdaptiveConvectionAlgorithm;            !- Algorithm

OS:Output:Table:SummaryReports,
  {1b312e74-8629-48fc-ac60-f6673ec7a8bd}, !- Handle
  AllSummary,                             !- Report Name 1
  ZoneComponentLoadSummary;               !- Report Name 2

OS:Sizing:Parameters,
  {3b1e27cb-2e25-4d9c-b29b-87355b0f9ac5}, !- Handle
  1,                                      !- Heating Sizing Factor
  1;                                      !- Cooling Sizing Factor

OS:ScheduleTypeLimits,
  {6ffa74a9-d628-4ed5-b079-bf25f5fb61fc}, !- Handle
  Fraction,                               !- Name
  0,                                      !- Lower Limit Value
  1,                                      !- Upper Limit Value
  Continuous,                             !- Numeric Type
  Dimensionless;                          !- Unit Type

OS:ScheduleTypeLimits,
  {8a2309fb-26c4-41b2-8b3f-585962c85a74}, !- Handle
  AnyNumber;                              !- Name

OS:ScheduleTypeLimits,
  {0d224d20-264d-4575-aa7b-95b95d38505b}, !- Handle
  Temperature,                            !- Name
  -100,                                   !- Lower Limit Value
  200,                                    !- Upper Limit Value
  Continuous,                             !- Numeric Type
  Temperature;                            !- Unit Type

OS:Schedule:Compact,
  {03cf0d17-7aeb-4c7f-84b5-350b3c47fc25}, !- Handle
  GroundFloorandWallHeatLoss_Sch_{00001}, !- Name
  {6ffa74a9-d628-4ed5-b079-bf25f5fb61fc}, !- Schedule Type Limits Name
  Through: 12/31,                         !- Field 1
  For: WinterDesignday,                   !- Field 2
  Until: 24:00,                           !- Field 3
  1,                                      !- Field 4
  For: AllOtherDays,                      !- Field 5
  Until: 24:00,                           !- Field 6
  0;                                      !- Field 7

OS:Foundation:Kiva,
  {30b14ee5-b306-4ded-9502-461e778a22c4}, !- Handle
  Foundation Kiva 1,                      !- Name
  20,                                     !- Initial Indoor Air Temperature {C}
  ,                                       !- Interior Horizontal Insulation Material Name
  ,                                       !- Interior Horizontal Insulation Depth {m}
  ,                                       !- Interior Horizontal Insulation Width {m}
  ,                                       !- Interior Vertical Insulation Material Name
  ,                                       !- Interior Vertical Insulation Depth {m}
  ,                                       !- Exterior Horizontal Insulation Material Name
  ,                                       !- Exterior Horizontal Insulation Depth {m}
  ,                                       !- Exterior Horizontal Insulation Width {m}
  ,                                       !- Exterior Vertical Insulation Material Name
  ,                                       !- Exterior Vertical Insulation Depth {m}
  ,                                       !- Wall Height Above Grade {m}
  ,                                       !- Wall Depth Below Slab {m}
  ,                                       !- Footing Wall Construction Name
  ,                                       !- Footing Material Name
  ;                                       !- Footing Depth {m}

OS:Foundation:Kiva:Settings,
  {85003d2e-7c95-44b7-be7c-e77fa00bbcc8}, !- Handle
  1.38458802063197,                       !- Soil Conductivity {W/m-K}
  1200,                                   !- Soil Density {kg/m3}
  1200,                                   !- Soil Specific Heat {J/kg-K}
  0.9,                                    !- Ground Solar Absorptivity {dimensionless}
  0.9,                                    !- Ground Thermal Absorptivity {dimensionless}
  0.03,                                   !- Ground Surface Roughness {m}
  40,                                     !- Far-Field Width {m}
  Autoselect,                             !- Deep-Ground Boundary Condition
  ,                                       !- Deep-Ground Depth {m}
  0.02,                                   !- Minimum Cell Dimension {m}
  1.5,                                    !- Maximum Cell Growth Coefficient {dimensionless}
  Timestep;                               !- Simulation Timestep

OS:Material,
  {ad98d9b1-3501-45f3-aca5-f13deeefb6f8}, !- Handle
  2016 Zone 4 Above-grade steel-framed wall_5/8-in gypsum board_{00014}, !- Name
  MediumRough,                            !- Roughness
  0.015875,                               !- Thickness {m}
  0.160092989563197,                      !- Conductivity {W/m-K}
  800.84220410226,                        !- Density {kg/m3}
  1088.56796007156,                       !- Specific Heat {J/kg-K}
  0.449999988079071,                      !- Thermal Absorptance
  0.449999988079071,                      !- Solar Absorptance
  0.449999988079071;                      !- Visible Absorptance

OS:Material,
  {eda9bf34-f538-46d8-853e-4b4bcfd004ef}, !- Handle
  2016 Zone 4 Above-grade steel-framed wall_3.5-in cavity_ 16-in o.c. steel frame_ R-13 batt_{00015}, !- Name
  MediumRough,                            !- Roughness
  0.0889,                                 !- Thickness {m}
  0.0841310314695537,                     !- Conductivity {W/m-K}
  54.4572714064389,                       !- Density {kg/m3}
  837.360012477636;                       !- Specific Heat {J/kg-K}

OS:Material,
  {3b27ea4e-996f-45f8-a731-53f6ccbc5b22}, !- Handle
  2016 Zone 4 Above-grade steel-framed wall_R-7.5 board insulation_{00016}, !- Name
  MediumRough,                            !- Roughness
  0.0381,                                 !- Thickness {m}
  0.0288513521178253,                     !- Conductivity {W/m-K}
  40.042110205113,                        !- Density {kg/m3}
  1465.37997504473;                       !- Specific Heat {J/kg-K}

OS:Material,
  {fcb456d9-d845-4468-b641-a6bece0fc448}, !- Handle
  2016 Zone 4 Above-grade steel-framed wall_5/8-in gypsum board_{00017}, !- Name
  MediumRough,                            !- Roughness
  0.015875,                               !- Thickness {m}
  0.160092989563197,                      !- Conductivity {W/m-K}
  800.84220410226,                        !- Density {kg/m3}
  1088.56796007156;                       !- Specific Heat {J/kg-K}

OS:Material,
  {68d84c8e-bb51-4c7c-9a72-cb4cabb6136e}, !- Handle
  2016 Zone 4 Above-grade steel-framed wall_3/4-in HW stucco_{00018}, !- Name
  MediumRough,                            !- Roughness
  0.01905,                                !- Thickness {m}
  1.35213671875,                          !- Conductivity {W/m-K}
  1922.02128984542,                       !- Density {kg/m3}
  837.360012477636,                       !- Specific Heat {J/kg-K}
  0.675000011920929,                      !- Thermal Absorptance
  0.675000011920929,                      !- Solar Absorptance
  0.675000011920929;                      !- Visible Absorptance

OS:Construction,
  {5e8fa028-4446-45e1-8d6e-63688418a163}, !- Handle
  2016 Zone 4 Above-grade steel-framed wall_{00019}, !- Name
  ,                                       !- Surface Rendering Name
  {68d84c8e-bb51-4c7c-9a72-cb4cabb6136e}, !- Layer 1
  {fcb456d9-d845-4468-b641-a6bece0fc448}, !- Layer 2
  {3b27ea4e-996f-45f8-a731-53f6ccbc5b22}, !- Layer 3
  {eda9bf34-f538-46d8-853e-4b4bcfd004ef}, !- Layer 4
  {ad98d9b1-3501-45f3-aca5-f13deeefb6f8}; !- Layer 5

OS:Material,
  {3292e282-04fb-43fd-832f-b5d273c862af}, !- Handle
  2016 Zone 4 Insulation entirely above deck_R-30 board insulation_{00020}, !- Name
  MediumRough,                            !- Roughness
  0.1524,                                 !- Thickness {m}
  0.0288513521178253,                     !- Conductivity {W/m-K}
  40.042110205113,                        !- Density {kg/m3}
  1465.37997504473,                       !- Specific Heat {J/kg-K}
  0.675000011920929,                      !- Thermal Absorptance
  0.675000011920929,                      !- Solar Absorptance
  0.675000011920929;                      !- Visible Absorptance

OS:Material,
  {7653820f-dc19-4fc9-825f-0d940ecf56d0}, !- Handle
  2016 Zone 4 Insulation entirely above deck_22-gauge steel roof deck_{00021}, !- Name
  MediumRough,                            !- Roughness
  0.000863600046932697,                   !- Thickness {m}
  54.4860986730003,                       !- Conductivity {W/m-K}
  7832.2367561201,                        !- Density {kg/m3}
  502.415988770127,                       !- Specific Heat {J/kg-K}
  0.449999988079071,                      !- Thermal Absorptance
  0.449999988079071,                      !- Solar Absorptance
  0.449999988079071;                      !- Visible Absorptance

OS:Construction,
  {d1abec04-24ed-4a0c-98fe-7550f4f45bf4}, !- Handle
  2016 Zone 4 Insulation entirely above deck_{00022}, !- Name
  ,                                       !- Surface Rendering Name
  {3292e282-04fb-43fd-832f-b5d273c862af}, !- Layer 1
  {7653820f-dc19-4fc9-825f-0d940ecf56d0}; !- Layer 2

OS:Material,
  {e3d1ab1d-bbaa-43b9-b28d-52935283c001}, !- Handle
  2016 Zone 4 Slab-on-grade floor_ unheated_6 in. HW concrete_{00023}, !- Name
  MediumRough,                            !- Roughness
  0.0762,                                 !- Thickness {m}
  1.947076875,                            !- Conductivity {W/m-K}
  2242.35817148633,                       !- Density {kg/m3}
  921.095995008945,                       !- Specific Heat {J/kg-K}
  0.675000011920929,                      !- Thermal Absorptance
  0.675000011920929,                      !- Solar Absorptance
  0.675000011920929;                      !- Visible Absorptance

OS:Material,
  {b89b6379-7982-43d2-89cf-83d43a9cd614}, !- Handle
  2016 Zone 4 Slab-on-grade floor_ unheated_6 in. HW concrete_{00024}, !- Name
  MediumRough,                            !- Roughness
  0.0762,                                 !- Thickness {m}
  1.947076875,                            !- Conductivity {W/m-K}
  2242.35817148633,                       !- Density {kg/m3}
  921.095995008945,                       !- Specific Heat {J/kg-K}
  ,                                       !- Thermal Absorptance
  0,                                      !- Solar Absorptance
  0;                                      !- Visible Absorptance

OS:Construction,
  {c84a0a37-e294-4702-be36-653b9f694ddd}, !- Handle
  2016 Zone 4 Slab-on-grade floor_ unheated_{00025}, !- Name
  ,                                       !- Surface Rendering Name
  {b89b6379-7982-43d2-89cf-83d43a9cd614}, !- Layer 1
  {e3d1ab1d-bbaa-43b9-b28d-52935283c001}; !- Layer 2

OS:Material,
  {2bbb7470-17df-45c8-af2a-6b966a43456c}, !- Handle
  Generic - Gypsum Board Interior Wall_5/8-in gypsum board_{00029}, !- Name
  MediumRough,                            !- Roughness
  0.015875,                               !- Thickness {m}
  0.160958358816914,                      !- Conductivity {W/m-K}
  800.84220410226,                        !- Density {kg/m3}
  1088.56796007156,                       !- Specific Heat {J/kg-K}
  0.449999988079071,                      !- Thermal Absorptance
  0.449999988079071,                      !- Solar Absorptance
  0.449999988079071;                      !- Visible Absorptance

OS:Material,
  {234c6cf5-2e35-4369-86f9-9de568fea680}, !- Handle
  Generic - Gypsum Board Interior Wall_3.5-in cavity_ steel frame 16-in o.c._ no insul_{00030}, !- Name
  MediumRough,                            !- Roughness
  0.0889,                                 !- Thickness {m}
  0.638984406759292,                      !- Conductivity {W/m-K}
  46.4488493654163,                       !- Density {kg/m3}
  1400;                                   !- Specific Heat {J/kg-K}

OS:Material,
  {e7bb23be-d177-471a-9014-a171fbf672e1}, !- Handle
  Generic - Gypsum Board Interior Wall_5/8-in gypsum board_{00031}, !- Name
  MediumRough,                            !- Roughness
  0.015875,                               !- Thickness {m}
  0.160958358816914,                      !- Conductivity {W/m-K}
  800.84220410226,                        !- Density {kg/m3}
  1088.56796007156,                       !- Specific Heat {J/kg-K}
  0.449999988079071,                      !- Thermal Absorptance
  0.449999988079071,                      !- Solar Absorptance
  0.449999988079071;                      !- Visible Absorptance

OS:Construction,
  {a354de47-34e1-4068-a1f9-e1aac926e740}, !- Handle
  Generic - Gypsum Board Interior Wall_{00032}, !- Name
  ,                                       !- Surface Rendering Name
  {e7bb23be-d177-471a-9014-a171fbf672e1}, !- Layer 1
  {234c6cf5-2e35-4369-86f9-9de568fea680}, !- Layer 2
  {2bbb7470-17df-45c8-af2a-6b966a43456c}; !- Layer 3

OS:WindowMaterial:SimpleGlazingSystem,
  {761fa33a-ed22-43f9-ae8e-516621cd7215}, !- Handle
  2016 Zone 4 Metal framing_ fixed_withShade_{00041}, !- Name
  2.15773991292393,                       !- U-Factor {W/m2-K}
  0.360000014305115,                      !- Solar Heat Gain Coefficient
  0.395999997854233;                      !- Visible Transmittance

OS:WindowMaterial:Shade,
  {abd995d1-75f0-4fde-89c4-71624a4f5530}, !- Handle
  Drape-OpenWeave-Medium_{00042},         !- Name
  0.49,                                   !- Solar Transmittance {dimensionless}
  0.25,                                   !- Solar Reflectance {dimensionless}
  0.49,                                   !- Visible Transmittance {dimensionless}
  0.25,                                   !- Visible Reflectance {dimensionless}
  0.65,                                   !- Thermal Hemispherical Emissivity {dimensionless}
  0.25,                                   !- Thermal Transmittance {dimensionless}
  0.0005,                                 !- Thickness {m}
  0.1,                                    !- Conductivity {W/m-K}
  0.05,                                   !- Shade to Glass Distance {m}
  0.1,                                    !- Top Opening Multiplier
  0.1,                                    !- Bottom Opening Multiplier
  0,                                      !- Left-Side Opening Multiplier
  0,                                      !- Right-Side Opening Multiplier
  0.3;                                    !- Airflow Permeability {dimensionless}

OS:ShadingControl,
  {88622599-cc9c-44b9-a426-e642f70d1c0c}, !- Handle
  ShadingCtrlDrape-OpenWeave-Medium_{00043}, !- Name
  InteriorShade,                          !- Shading Type
  ,                                       !- Construction with Shading Name
  {abd995d1-75f0-4fde-89c4-71624a4f5530}, !- Shading Device Material Name
  AlwaysOn,                               !- Shading Control Type
  ,                                       !- Schedule Name
  ;                                       !- Setpoint

OS:Construction,
  {8aa11046-0175-4632-9210-d66f069daa99}, !- Handle
  Construction 3,                         !- Name
  ,                                       !- Surface Rendering Name
  {761fa33a-ed22-43f9-ae8e-516621cd7215}; !- Layer 1

OS:ThermostatSetpoint:DualSetpoint,
  {9187cb12-c30d-4e31-b91a-0cd5abfcc0a8}, !- Handle
  4PFCU - Conditioned_Tstat_{00044},      !- Name
  {62e09c0a-8e93-491f-8599-cdf7242bd350}, !- Heating Setpoint Temperature Schedule Name
  {9b27a20e-be12-4a8e-8a5e-ac069823efd7}; !- Cooling Setpoint Temperature Schedule Name

OS:Schedule:Year,
  {9b27a20e-be12-4a8e-8a5e-ac069823efd7}, !- Handle
  90.1 Health HVAC_ClgSp_{00045},         !- Name
  {0d224d20-264d-4575-aa7b-95b95d38505b}, !- Schedule Type Limits Name
  12,                                     !- Month 1
  31,                                     !- Day 1
  {c3845e3a-d6e2-47d6-a362-76c6b1c6ed6e}; !- Week Schedule Until Date 1

OS:Schedule:Day,
  {430d5457-3964-40c8-b142-d06b7e5f0159}, !- Handle
  90.1 Health HVAC_Profile_Profile_2_ClgSp_UnoccupiedAvailable_{00046}, !- Name
  {0d224d20-264d-4575-aa7b-95b95d38505b}, !- Schedule Type Limits Name
  ,                                       !- Interpolate to Timestep
  6,                                      !- Hour 1
  0,                                      !- Minute 1
  26.6666666666667,                       !- Value Until Time 1
  22,                                     !- Hour 2
  0,                                      !- Minute 2
  23.8888888888889,                       !- Value Until Time 2
  24,                                     !- Hour 3
  0,                                      !- Minute 3
  26.6666666666667;                       !- Value Until Time 3

OS:Schedule:Day,
  {57a7d11b-6b74-4190-b500-b33dd8de4a8d}, !- Handle
  90.1 Health HVAC_Profile_Profile_3_ClgSp_UnoccupiedAvailable_{00048}, !- Name
  {0d224d20-264d-4575-aa7b-95b95d38505b}, !- Schedule Type Limits Name
  ,                                       !- Interpolate to Timestep
  6,                                      !- Hour 1
  0,                                      !- Minute 1
  26.6666666666667,                       !- Value Until Time 1
  19,                                     !- Hour 2
  0,                                      !- Minute 2
  23.8888888888889,                       !- Value Until Time 2
  24,                                     !- Hour 3
  0,                                      !- Minute 3
  26.6666666666667;                       !- Value Until Time 3

OS:Schedule:Day,
  {5e8da3f8-c122-46ae-97ce-afc9f95c162b}, !- Handle
  90.1 Health HVAC_Profile_Profile_4_ClgSp_UnoccupiedAvailable_{00050}, !- Name
  {0d224d20-264d-4575-aa7b-95b95d38505b}, !- Schedule Type Limits Name
  ,                                       !- Interpolate to Timestep
  7,                                      !- Hour 1
  0,                                      !- Minute 1
  26.6666666666667,                       !- Value Until Time 1
  16,                                     !- Hour 2
  0,                                      !- Minute 2
  23.8888888888889,                       !- Value Until Time 2
  24,                                     !- Hour 3
  0,                                      !- Minute 3
  26.6666666666667;                       !- Value Until Time 3

OS:Schedule:Day,
  {8f417859-5567-4f2b-9764-696e12e792c7}, !- Handle
  4PFCU - Conditioned_Thermostat_ClgSp_at_WDD, !- Name
  {0d224d20-264d-4575-aa7b-95b95d38505b}, !- Schedule Type Limits Name
  ,                                       !- Interpolate to Timestep
  24,                                     !- Hour 1
  0,                                      !- Minute 1
  23.8888888888889;                       !- Value Until Time 1

OS:Schedule:Week,
  {c3845e3a-d6e2-47d6-a362-76c6b1c6ed6e}, !- Handle
  Schedule1465220899_{00052},             !- Name
  ,                                       !- Schedule Rendering Name
  {5e8da3f8-c122-46ae-97ce-afc9f95c162b}, !- Sunday Schedule:Day Name
  {430d5457-3964-40c8-b142-d06b7e5f0159}, !- Monday Schedule:Day Name
  {430d5457-3964-40c8-b142-d06b7e5f0159}, !- Tuesday Schedule:Day Name
  {430d5457-3964-40c8-b142-d06b7e5f0159}, !- Wednesday Schedule:Day Name
  {430d5457-3964-40c8-b142-d06b7e5f0159}, !- Thursday Schedule:Day Name
  {430d5457-3964-40c8-b142-d06b7e5f0159}, !- Friday Schedule:Day Name
  {57a7d11b-6b74-4190-b500-b33dd8de4a8d}, !- Saturday Schedule:Day Name
  {5e8da3f8-c122-46ae-97ce-afc9f95c162b}, !- Holiday Schedule:Day Name
  {430d5457-3964-40c8-b142-d06b7e5f0159}, !- SummerDesignDay Schedule:Day Name
  {8f417859-5567-4f2b-9764-696e12e792c7}, !- WinterDesignDay Schedule:Day Name
  {5e8da3f8-c122-46ae-97ce-afc9f95c162b}, !- CustomDay1 Schedule:Day Name
  {5e8da3f8-c122-46ae-97ce-afc9f95c162b}; !- CustomDay2 Schedule:Day Name

OS:YearDescription,
  {8649ba7a-2880-40b6-8d6d-7643ecd1edc1}; !- Handle

OS:Schedule:Year,
  {62e09c0a-8e93-491f-8599-cdf7242bd350}, !- Handle
  90.1 Health HVAC_HtgSp_{00053},         !- Name
  {0d224d20-264d-4575-aa7b-95b95d38505b}, !- Schedule Type Limits Name
  12,                                     !- Month 1
  31,                                     !- Day 1
  {1c9b42bc-453e-490a-a307-2b3dbe5bfb79}; !- Week Schedule Until Date 1

OS:Schedule:Day,
  {6d59b870-79a3-4fd0-97ac-1f57848cbeff}, !- Handle
  90.1 Health HVAC_Profile_Profile_2_HtgSp_UnoccupiedAvailable_{00054}, !- Name
  {0d224d20-264d-4575-aa7b-95b95d38505b}, !- Schedule Type Limits Name
  ,                                       !- Interpolate to Timestep
  6,                                      !- Hour 1
  0,                                      !- Minute 1
  18.3333333333333,                       !- Value Until Time 1
  22,                                     !- Hour 2
  0,                                      !- Minute 2
  21.1111111111111,                       !- Value Until Time 2
  24,                                     !- Hour 3
  0,                                      !- Minute 3
  18.3333333333333;                       !- Value Until Time 3

OS:Schedule:Day,
  {cc832628-66f9-4a85-9b6b-7888365d9571}, !- Handle
  90.1 Health HVAC_Profile_Profile_3_HtgSp_UnoccupiedAvailable_{00056}, !- Name
  {0d224d20-264d-4575-aa7b-95b95d38505b}, !- Schedule Type Limits Name
  ,                                       !- Interpolate to Timestep
  6,                                      !- Hour 1
  0,                                      !- Minute 1
  18.3333333333333,                       !- Value Until Time 1
  19,                                     !- Hour 2
  0,                                      !- Minute 2
  21.1111111111111,                       !- Value Until Time 2
  24,                                     !- Hour 3
  0,                                      !- Minute 3
  18.3333333333333;                       !- Value Until Time 3

OS:Schedule:Day,
  {f4f42e45-7703-432a-a1d9-b4dd129db0b1}, !- Handle
  90.1 Health HVAC_Profile_Profile_4_HtgSp_UnoccupiedAvailable_{00058}, !- Name
  {0d224d20-264d-4575-aa7b-95b95d38505b}, !- Schedule Type Limits Name
  ,                                       !- Interpolate to Timestep
  7,                                      !- Hour 1
  0,                                      !- Minute 1
  18.3333333333333,                       !- Value Until Time 1
  16,                                     !- Hour 2
  0,                                      !- Minute 2
  21.1111111111111,                       !- Value Until Time 2
  24,                                     !- Hour 3
  0,                                      !- Minute 3
  18.3333333333333;                       !- Value Until Time 3

OS:Schedule:Day,
  {a634b53d-7f0b-4d8a-bfe6-73ea55ce9699}, !- Handle
  4PFCU - Conditioned_Thermostat_HtgSp_at_WDD, !- Name
  {0d224d20-264d-4575-aa7b-95b95d38505b}, !- Schedule Type Limits Name
  ,                                       !- Interpolate to Timestep
  24,                                     !- Hour 1
  0,                                      !- Minute 1
  21.1111111111111;                       !- Value Until Time 1

OS:Schedule:Week,
  {1c9b42bc-453e-490a-a307-2b3dbe5bfb79}, !- Handle
  Schedule1465220899_{00060},             !- Name
  ,                                       !- Schedule Rendering Name
  {f4f42e45-7703-432a-a1d9-b4dd129db0b1}, !- Sunday Schedule:Day Name
  {6d59b870-79a3-4fd0-97ac-1f57848cbeff}, !- Monday Schedule:Day Name
  {6d59b870-79a3-4fd0-97ac-1f57848cbeff}, !- Tuesday Schedule:Day Name
  {6d59b870-79a3-4fd0-97ac-1f57848cbeff}, !- Wednesday Schedule:Day Name
  {6d59b870-79a3-4fd0-97ac-1f57848cbeff}, !- Thursday Schedule:Day Name
  {6d59b870-79a3-4fd0-97ac-1f57848cbeff}, !- Friday Schedule:Day Name
  {cc832628-66f9-4a85-9b6b-7888365d9571}, !- Saturday Schedule:Day Name
  {f4f42e45-7703-432a-a1d9-b4dd129db0b1}, !- Holiday Schedule:Day Name
  {6d59b870-79a3-4fd0-97ac-1f57848cbeff}, !- SummerDesignDay Schedule:Day Name
  {a634b53d-7f0b-4d8a-bfe6-73ea55ce9699}, !- WinterDesignDay Schedule:Day Name
  {f4f42e45-7703-432a-a1d9-b4dd129db0b1}, !- CustomDay1 Schedule:Day Name
  {f4f42e45-7703-432a-a1d9-b4dd129db0b1}; !- CustomDay2 Schedule:Day Name

OS:ThermostatSetpoint:DualSetpoint,
  {d6263059-351e-4233-b829-d868bae8b396}, !- Handle
  CRAC-1_Tstat_{00061},                   !- Name
  {666dcda5-b307-4642-9241-3cbe3f76045d}, !- Heating Setpoint Temperature Schedule Name
  {c50dc2c5-9af7-4cee-8f51-fe04b0a15fc0}; !- Cooling Setpoint Temperature Schedule Name

OS:Schedule:Year,
  {c50dc2c5-9af7-4cee-8f51-fe04b0a15fc0}, !- Handle
  Computer Room HVAC_ClgSp_{00062},       !- Name
  {0d224d20-264d-4575-aa7b-95b95d38505b}, !- Schedule Type Limits Name
  12,                                     !- Month 1
  31,                                     !- Day 1
  {bf7b8101-9226-44d4-a866-27d1c86e8230}; !- Week Schedule Until Date 1

OS:Schedule:Day,
  {9ae6fc0d-b2ed-4e3b-be23-b72c79e5cbee}, !- Handle
  Computer Room HVAC_Profile_Profile_1_ClgSp_UnoccupiedAvailable_{00063}, !- Name
  {0d224d20-264d-4575-aa7b-95b95d38505b}, !- Schedule Type Limits Name
  ,                                       !- Interpolate to Timestep
  24,                                     !- Hour 1
  0,                                      !- Minute 1
  23.8888888888889;                       !- Value Until Time 1

OS:Schedule:Day,
  {eba3a9c1-b5a1-4e0f-b612-538839f5e96f}, !- Handle
  CRAC-1_Thermostat_ClgSp_at_WDD,         !- Name
  {0d224d20-264d-4575-aa7b-95b95d38505b}, !- Schedule Type Limits Name
  ,                                       !- Interpolate to Timestep
  24,                                     !- Hour 1
  0,                                      !- Minute 1
  23.8888888888889;                       !- Value Until Time 1

OS:Schedule:Week,
  {bf7b8101-9226-44d4-a866-27d1c86e8230}, !- Handle
  Schedule1373865669_{00065},             !- Name
  ,                                       !- Schedule Rendering Name
  {9ae6fc0d-b2ed-4e3b-be23-b72c79e5cbee}, !- Sunday Schedule:Day Name
  {9ae6fc0d-b2ed-4e3b-be23-b72c79e5cbee}, !- Monday Schedule:Day Name
  {9ae6fc0d-b2ed-4e3b-be23-b72c79e5cbee}, !- Tuesday Schedule:Day Name
  {9ae6fc0d-b2ed-4e3b-be23-b72c79e5cbee}, !- Wednesday Schedule:Day Name
  {9ae6fc0d-b2ed-4e3b-be23-b72c79e5cbee}, !- Thursday Schedule:Day Name
  {9ae6fc0d-b2ed-4e3b-be23-b72c79e5cbee}, !- Friday Schedule:Day Name
  {9ae6fc0d-b2ed-4e3b-be23-b72c79e5cbee}, !- Saturday Schedule:Day Name
  {9ae6fc0d-b2ed-4e3b-be23-b72c79e5cbee}, !- Holiday Schedule:Day Name
  {9ae6fc0d-b2ed-4e3b-be23-b72c79e5cbee}, !- SummerDesignDay Schedule:Day Name
  {eba3a9c1-b5a1-4e0f-b612-538839f5e96f}, !- WinterDesignDay Schedule:Day Name
  {9ae6fc0d-b2ed-4e3b-be23-b72c79e5cbee}, !- CustomDay1 Schedule:Day Name
  {9ae6fc0d-b2ed-4e3b-be23-b72c79e5cbee}; !- CustomDay2 Schedule:Day Name

OS:Schedule:Year,
  {666dcda5-b307-4642-9241-3cbe3f76045d}, !- Handle
  Computer Room HVAC_HtgSp_{00066},       !- Name
  {0d224d20-264d-4575-aa7b-95b95d38505b}, !- Schedule Type Limits Name
  12,                                     !- Month 1
  31,                                     !- Day 1
  {9cef105e-a363-49ab-a269-84630b38a8f1}; !- Week Schedule Until Date 1

OS:Schedule:Day,
  {6573f902-70f2-4b52-9f0d-b8f5f33042a5}, !- Handle
  Computer Room HVAC_Profile_Profile_1_HtgSp_UnoccupiedAvailable_{00067}, !- Name
  {0d224d20-264d-4575-aa7b-95b95d38505b}, !- Schedule Type Limits Name
  ,                                       !- Interpolate to Timestep
  24,                                     !- Hour 1
  0,                                      !- Minute 1
  21.1111111111111;                       !- Value Until Time 1

OS:Schedule:Day,
  {451a9ea8-97d7-45b8-aaea-e9d06c24dcb5}, !- Handle
  CRAC-1_Thermostat_HtgSp_at_WDD,         !- Name
  {0d224d20-264d-4575-aa7b-95b95d38505b}, !- Schedule Type Limits Name
  ,                                       !- Interpolate to Timestep
  24,                                     !- Hour 1
  0,                                      !- Minute 1
  21.1111111111111;                       !- Value Until Time 1

OS:Schedule:Week,
  {9cef105e-a363-49ab-a269-84630b38a8f1}, !- Handle
  Schedule1373865669_{00069},             !- Name
  ,                                       !- Schedule Rendering Name
  {6573f902-70f2-4b52-9f0d-b8f5f33042a5}, !- Sunday Schedule:Day Name
  {6573f902-70f2-4b52-9f0d-b8f5f33042a5}, !- Monday Schedule:Day Name
  {6573f902-70f2-4b52-9f0d-b8f5f33042a5}, !- Tuesday Schedule:Day Name
  {6573f902-70f2-4b52-9f0d-b8f5f33042a5}, !- Wednesday Schedule:Day Name
  {6573f902-70f2-4b52-9f0d-b8f5f33042a5}, !- Thursday Schedule:Day Name
  {6573f902-70f2-4b52-9f0d-b8f5f33042a5}, !- Friday Schedule:Day Name